&HEAD CHID='Region7', TITLE='Simulation of Chimney Tops fire' /

&MESH IJK=50,50,30, XB=400,500.0,400,500.0,380,440.0, MULT_ID='mesh' / 
&MULT ID='mesh', DX=100.0, DY=100.0, DZ=60.0, I_LOWER=0, I_UPPER=1, J_LOWER=0, J_UPPER=1, K_UPPER=3 /  

&MISC TMPA=30., TERRAIN_CASE=.TRUE., TERRAIN_IMAGE='Region7.png', VERBOSE=.TRUE., RESTART=.FALSE., PROJECTION=.TRUE.  /
&TIME T_BEGIN = 300.0, T_END = 360.0 / 

&DUMP NFRAMES=120, DT_PART=100., CFL_FILE=.TRUE., DT_PL3D=60.0 /  
&WIND DIRECTION=135., SPEED=5., SPONGE_CELLS=0, STRATIFICATION=.FALSE. /

&SLCF XB=400,600,400,600,380,620, QUANTITY='HRRPUV', CELL_CENTERED=.TRUE. /  

&CATF OTHER_FILES='../Region6/Region6.ini' / 


&RAMP ID='fire', T= 300, F=1. /
&RAMP ID='fire', T= 305.0, F=1. /
&RAMP ID='fire', T= 310.0, F=0. /
&VENT MB='XMIN', SURF_ID='OPEN' /  
&VENT MB='XMAX', SURF_ID='OPEN' /  
&VENT MB='YMIN', SURF_ID='OPEN' /  
&VENT MB='YMAX', SURF_ID='OPEN' /  
&VENT MB='ZMAX', SURF_ID='OPEN' /  

&REAC FUEL='CELLULOSE', C=6, H=10, O=5, SOOT_YIELD=0.005 / 

&SPEC ID='WATER VAPOR' / 

&SURF ID                        = 'grass' 
      MATL_ID(1,1:2)            = 'GENERIC VEGETATION','MOISTURE'
      MATL_MASS_FRACTION(1,1:2) = 0.937,0.063
      THICKNESS                 = 0.0002
      LENGTH                    = 0.21
      HEAT_TRANSFER_COEFFICIENT = 30.
      GEOMETRY                  = 'CYLINDRICAL' /

&SURF ID                        = 'needles' 
      MATL_ID(1,1:2)            = 'GENERIC VEGETATION','MOISTURE'
      MATL_MASS_FRACTION(1,1:2) = 0.95,0.05
      THICKNESS                 = 0.02
      LENGTH                    = 0.21
      HEAT_TRANSFER_COEFFICIENT = 30.
      GEOMETRY                  = 'CYLINDRICAL' /

&MATL ID = 'GENERIC VEGETATION' 
      DENSITY = 500.
      CONDUCTIVITY = 0.1
      SPECIFIC_HEAT= 1.5
      REFERENCE_TEMPERATURE = 200
      PYROLYSIS_RANGE = 30.
      NU_MATL = 0.2
      NU_SPEC = 0.8 
      SPEC_ID = 'CELLULOSE'
      HEAT_OF_COMBUSTION = 15600.
      HEAT_OF_REACTION = 418.
      MATL_ID  = 'CHAR' /

&MATL ID = 'MOISTURE' 
      DENSITY = 1000.
      CONDUCTIVITY = 0.1
      SPECIFIC_HEAT= 4.184
      REFERENCE_TEMPERATURE = 100.
      PYROLYSIS_RANGE = 10.
      NU_SPEC = 1.0 
      SPEC_ID = 'WATER VAPOR'
      HEAT_OF_REACTION = 2500./

&MATL ID = 'CHAR'
      DENSITY  = 100.
      CONDUCTIVITY = 0.1 
      SPECIFIC_HEAT = 1.0 / 

&MATL ID='DIRT'
      CONDUCTIVITY = 0.25
      SPECIFIC_HEAT = 2.
     DENSITY = 1300. /

&PART ID='foliage', DRAG_COEFFICIENT=1.0, SURF_ID='needles', SAMPLING_FACTOR=5,
      QUANTITIES='PARTICLE TEMPERATURE','PARTICLE MASS','PARTICLE DIAMETER', STATIC=.TRUE., COLOR='GREEN' / 

&PART ID='grass', DRAG_COEFFICIENT=1.0, SURF_ID='grass', SAMPLING_FACTOR=958,
      QUANTITIES='PARTICLE TEMPERATURE','PARTICLE MASS','PARTICLE DIAMETER', STATIC=.TRUE., COLOR='BROWN' /

&SURF ID = 'surf1', RGB = 122,117,48, MATL_ID='DIRT', THICKNESS=0.2, PART_ID='grass', PARTICLE_SURFACE_DENSITY=1.0 / 
&SURF ID = 'surf2', RGB = 0,100,0, MATL_ID='DIRT', THICKNESS=0.2 / 

&OBST XB=400.0,402.0,400.0,402.0,380,486.052063 SURF_ID='surf1' /
&OBST XB=400.0,402.0,401.0,403.0,380,486.052063 SURF_ID='surf1' /
&OBST XB=400.0,402.0,402.0,404.0,380,485.82092300000005 SURF_ID='surf1' /
&OBST XB=400.0,402.0,403.0,405.0,380,485.82092300000005 SURF_ID='surf1' /
&OBST XB=400.0,402.0,404.0,406.0,380,485.52856399999996 SURF_ID='surf1' /
&OBST XB=400.0,402.0,405.0,407.0,380,485.52856399999996 SURF_ID='surf1' /
&OBST XB=400.0,402.0,406.0,408.0,380,485.23602300000016 SURF_ID='surf1' /
&OBST XB=400.0,402.0,407.0,409.0,380,485.23602300000016 SURF_ID='surf1' /
&OBST XB=400.0,402.0,408.0,410.0,380,484.91091900000004 SURF_ID='surf1' /
&OBST XB=400.0,402.0,409.0,411.0,380,484.91091900000004 SURF_ID='surf1' /
&OBST XB=400.0,402.0,410.0,412.0,380,484.53949000000006 SURF_ID='surf1' /
&OBST XB=400.0,402.0,411.0,413.0,380,484.53949000000006 SURF_ID='surf1' /
&OBST XB=400.0,402.0,412.0,414.0,380,484.11358600000005 SURF_ID='surf1' /
&OBST XB=400.0,402.0,413.0,415.0,380,484.11358600000005 SURF_ID='surf1' /
&OBST XB=400.0,402.0,414.0,416.0,380,483.625732 SURF_ID='surf1' /
&OBST XB=400.0,402.0,415.0,417.0,380,483.625732 SURF_ID='surf1' /
&OBST XB=400.0,402.0,416.0,418.0,380,483.08352699999995 SURF_ID='surf1' /
&OBST XB=400.0,402.0,417.0,419.0,380,483.08352699999995 SURF_ID='surf1' /
&OBST XB=400.0,402.0,418.0,420.0,380,482.59533700000003 SURF_ID='surf1' /
&OBST XB=400.0,402.0,419.0,421.0,380,482.59533700000003 SURF_ID='surf1' /
&OBST XB=400.0,402.0,420.0,422.0,380,482.14700300000004 SURF_ID='surf1' /
&OBST XB=400.0,402.0,421.0,423.0,380,482.14700300000004 SURF_ID='surf1' /
&OBST XB=400.0,402.0,422.0,424.0,380,481.876678 SURF_ID='surf1' /
&OBST XB=400.0,402.0,423.0,425.0,380,481.876678 SURF_ID='surf1' /
&OBST XB=400.0,402.0,424.0,426.0,380,481.79879800000003 SURF_ID='surf1' /
&OBST XB=400.0,402.0,425.0,427.0,380,481.79879800000003 SURF_ID='surf1' /
&OBST XB=400.0,402.0,426.0,428.0,380,481.728729 SURF_ID='surf1' /
&OBST XB=400.0,402.0,427.0,429.0,380,481.728729 SURF_ID='surf1' /
&OBST XB=400.0,402.0,428.0,430.0,380,481.6586 SURF_ID='surf1' /
&OBST XB=400.0,402.0,429.0,431.0,380,481.6586 SURF_ID='surf1' /
&OBST XB=400.0,402.0,430.0,432.0,380,481.696228 SURF_ID='surf1' /
&OBST XB=400.0,402.0,431.0,433.0,380,481.696228 SURF_ID='surf1' /
&OBST XB=400.0,402.0,432.0,434.0,380,482.52969400000006 SURF_ID='surf1' /
&OBST XB=400.0,402.0,433.0,435.0,380,482.52969400000006 SURF_ID='surf1' /
&OBST XB=400.0,402.0,434.0,436.0,380,484.23294100000004 SURF_ID='surf1' /
&OBST XB=400.0,402.0,435.0,437.0,380,484.23294100000004 SURF_ID='surf1' /
&OBST XB=400.0,402.0,436.0,438.0,380,486.12451200000004 SURF_ID='surf1' /
&OBST XB=400.0,402.0,437.0,439.0,380,486.12451200000004 SURF_ID='surf1' /
&OBST XB=400.0,402.0,438.0,440.0,380,488.01614400000005 SURF_ID='surf1' /
&OBST XB=400.0,402.0,439.0,441.0,380,488.01614400000005 SURF_ID='surf1' /
&OBST XB=400.0,402.0,440.0,442.0,380,489.71935999999994 SURF_ID='surf1' /
&OBST XB=400.0,402.0,441.0,443.0,380,489.71935999999994 SURF_ID='surf1' /
&OBST XB=400.0,402.0,442.0,444.0,380,490.789917 SURF_ID='surf1' /
&OBST XB=400.0,402.0,443.0,445.0,380,490.789917 SURF_ID='surf1' /
&OBST XB=400.0,402.0,444.0,446.0,380,491.316528 SURF_ID='surf1' /
&OBST XB=400.0,402.0,445.0,447.0,380,491.316528 SURF_ID='surf1' /
&OBST XB=400.0,402.0,446.0,448.0,380,491.69967699999995 SURF_ID='surf1' /
&OBST XB=400.0,402.0,447.0,449.0,380,491.69967699999995 SURF_ID='surf1' /
&OBST XB=400.0,402.0,448.0,450.0,380,492.08255 SURF_ID='surf1' /
&OBST XB=400.0,402.0,449.0,451.0,380,492.08255 SURF_ID='surf1' /
&OBST XB=400.0,402.0,450.0,452.0,380,492.508057 SURF_ID='surf1' /
&OBST XB=400.0,402.0,451.0,453.0,380,492.508057 SURF_ID='surf1' /
&OBST XB=400.0,402.0,452.0,454.0,380,493.220154 SURF_ID='surf1' /
&OBST XB=400.0,402.0,453.0,455.0,380,493.220154 SURF_ID='surf1' /
&OBST XB=400.0,402.0,454.0,456.0,380,494.173004 SURF_ID='surf1' /
&OBST XB=400.0,402.0,455.0,457.0,380,494.173004 SURF_ID='surf1' /
&OBST XB=400.0,402.0,456.0,458.0,380,495.19390899999996 SURF_ID='surf1' /
&OBST XB=400.0,402.0,457.0,459.0,380,495.19390899999996 SURF_ID='surf1' /
&OBST XB=400.0,402.0,458.0,460.0,380,496.32769800000005 SURF_ID='surf1' /
&OBST XB=400.0,402.0,459.0,461.0,380,496.32769800000005 SURF_ID='surf1' /
&OBST XB=400.0,402.0,460.0,462.0,380,497.3479 SURF_ID='surf1' /
&OBST XB=400.0,402.0,461.0,463.0,380,497.3479 SURF_ID='surf1' /
&OBST XB=400.0,402.0,462.0,464.0,380,498.35220300000003 SURF_ID='surf1' /
&OBST XB=400.0,402.0,463.0,465.0,380,498.35220300000003 SURF_ID='surf1' /
&OBST XB=400.0,402.0,464.0,466.0,380,499.440033 SURF_ID='surf1' /
&OBST XB=400.0,402.0,465.0,467.0,380,499.440033 SURF_ID='surf1' /
&OBST XB=400.0,402.0,466.0,468.0,380,500.51443499999993 SURF_ID='surf1' /
&OBST XB=400.0,402.0,467.0,469.0,380,500.51443499999993 SURF_ID='surf1' /
&OBST XB=400.0,402.0,468.0,470.0,380,501.481293 SURF_ID='surf1' /
&OBST XB=400.0,402.0,469.0,471.0,380,501.481293 SURF_ID='surf1' /
&OBST XB=400.0,402.0,470.0,472.0,380,502.44754000000006 SURF_ID='surf1' /
&OBST XB=400.0,402.0,471.0,473.0,380,502.44754000000006 SURF_ID='surf1' /
&OBST XB=400.0,402.0,472.0,474.0,380,503.45834400000007 SURF_ID='surf1' /
&OBST XB=400.0,402.0,473.0,475.0,380,503.45834400000007 SURF_ID='surf1' /
&OBST XB=400.0,402.0,474.0,476.0,380,504.2612 SURF_ID='surf1' /
&OBST XB=400.0,402.0,475.0,477.0,380,504.2612 SURF_ID='surf1' /
&OBST XB=400.0,402.0,476.0,478.0,380,505.000824 SURF_ID='surf1' /
&OBST XB=400.0,402.0,477.0,479.0,380,505.000824 SURF_ID='surf1' /
&OBST XB=400.0,402.0,478.0,480.0,380,505.82269299999996 SURF_ID='surf1' /
&OBST XB=400.0,402.0,479.0,481.0,380,505.82269299999996 SURF_ID='surf1' /
&OBST XB=400.0,402.0,480.0,482.0,380,506.64407300000005 SURF_ID='surf1' /
&OBST XB=400.0,402.0,481.0,483.0,380,506.64407300000005 SURF_ID='surf1' /
&OBST XB=400.0,402.0,482.0,484.0,380,507.36477699999995 SURF_ID='surf1' /
&OBST XB=400.0,402.0,483.0,485.0,380,507.36477699999995 SURF_ID='surf1' /
&OBST XB=400.0,402.0,484.0,486.0,380,508.01062 SURF_ID='surf1' /
&OBST XB=400.0,402.0,485.0,487.0,380,508.01062 SURF_ID='surf1' /
&OBST XB=400.0,402.0,486.0,488.0,380,508.681763 SURF_ID='surf1' /
&OBST XB=400.0,402.0,487.0,489.0,380,508.681763 SURF_ID='surf1' /
&OBST XB=400.0,402.0,488.0,490.0,380,509.28576699999996 SURF_ID='surf1' /
&OBST XB=400.0,402.0,489.0,491.0,380,509.28576699999996 SURF_ID='surf1' /
&OBST XB=400.0,402.0,490.0,492.0,380,509.889709 SURF_ID='surf1' /
&OBST XB=400.0,402.0,491.0,493.0,380,509.889709 SURF_ID='surf1' /
&OBST XB=400.0,402.0,492.0,494.0,380,510.545898 SURF_ID='surf1' /
&OBST XB=400.0,402.0,493.0,495.0,380,510.545898 SURF_ID='surf1' /
&OBST XB=400.0,402.0,494.0,496.0,380,511.12524400000007 SURF_ID='surf1' /
&OBST XB=400.0,402.0,495.0,497.0,380,511.12524400000007 SURF_ID='surf1' /
&OBST XB=400.0,402.0,496.0,498.0,380,511.59082 SURF_ID='surf1' /
&OBST XB=400.0,402.0,497.0,499.0,380,511.59082 SURF_ID='surf1' /
&OBST XB=400.0,402.0,498.0,500.0,380,512.056458 SURF_ID='surf1' /
&OBST XB=400.0,402.0,499.0,501.0,380,512.056458 SURF_ID='surf1' /
&OBST XB=400.0,402.0,500.0,502.0,380,512.573853 SURF_ID='surf1' /
&OBST XB=400.0,402.0,501.0,503.0,380,512.573853 SURF_ID='surf1' /
&OBST XB=400.0,402.0,502.0,504.0,380,513.03949 SURF_ID='surf1' /
&OBST XB=400.0,402.0,503.0,505.0,380,513.03949 SURF_ID='surf1' /
&OBST XB=400.0,402.0,504.0,506.0,380,513.424683 SURF_ID='surf1' /
&OBST XB=400.0,402.0,505.0,507.0,380,513.424683 SURF_ID='surf1' /
&OBST XB=400.0,402.0,506.0,508.0,380,513.775879 SURF_ID='surf1' /
&OBST XB=400.0,402.0,507.0,509.0,380,513.775879 SURF_ID='surf1' /
&OBST XB=400.0,402.0,508.0,510.0,380,514.1218259999998 SURF_ID='surf1' /
&OBST XB=400.0,402.0,509.0,511.0,380,514.1218259999998 SURF_ID='surf1' /
&OBST XB=400.0,402.0,510.0,512.0,380,514.433167 SURF_ID='surf1' /
&OBST XB=400.0,402.0,511.0,513.0,380,514.433167 SURF_ID='surf1' /
&OBST XB=400.0,402.0,512.0,514.0,380,514.744507 SURF_ID='surf1' /
&OBST XB=400.0,402.0,513.0,515.0,380,514.744507 SURF_ID='surf1' /
&OBST XB=400.0,402.0,514.0,516.0,380,515.083374 SURF_ID='surf1' /
&OBST XB=400.0,402.0,515.0,517.0,380,515.083374 SURF_ID='surf1' /
&OBST XB=400.0,402.0,516.0,518.0,380,515.381165 SURF_ID='surf1' /
&OBST XB=400.0,402.0,517.0,519.0,380,515.381165 SURF_ID='surf1' /
&OBST XB=400.0,402.0,518.0,520.0,380,515.678284 SURF_ID='surf1' /
&OBST XB=400.0,402.0,519.0,521.0,380,515.678284 SURF_ID='surf1' /
&OBST XB=400.0,402.0,520.0,522.0,380,516.008484 SURF_ID='surf1' /
&OBST XB=400.0,402.0,521.0,523.0,380,516.008484 SURF_ID='surf1' /
&OBST XB=400.0,402.0,522.0,524.0,380,516.338684 SURF_ID='surf1' /
&OBST XB=400.0,402.0,523.0,525.0,380,516.338684 SURF_ID='surf1' /
&OBST XB=400.0,402.0,524.0,526.0,380,516.7843019999998 SURF_ID='surf1' /
&OBST XB=400.0,402.0,525.0,527.0,380,516.7843019999998 SURF_ID='surf1' /
&OBST XB=400.0,402.0,526.0,528.0,380,517.466309 SURF_ID='surf1' /
&OBST XB=400.0,402.0,527.0,529.0,380,517.466309 SURF_ID='surf1' /
&OBST XB=400.0,402.0,528.0,530.0,380,518.269836 SURF_ID='surf1' /
&OBST XB=400.0,402.0,529.0,531.0,380,518.269836 SURF_ID='surf1' /
&OBST XB=400.0,402.0,530.0,532.0,380,518.993347 SURF_ID='surf1' /
&OBST XB=400.0,402.0,531.0,533.0,380,518.993347 SURF_ID='surf1' /
&OBST XB=400.0,402.0,532.0,534.0,380,519.7167969999998 SURF_ID='surf1' /
&OBST XB=400.0,402.0,533.0,535.0,380,519.7167969999998 SURF_ID='surf1' /
&OBST XB=400.0,402.0,534.0,536.0,380,520.687866 SURF_ID='surf1' /
&OBST XB=400.0,402.0,535.0,537.0,380,520.687866 SURF_ID='surf1' /
&OBST XB=400.0,402.0,536.0,538.0,380,521.9501339999998 SURF_ID='surf1' /
&OBST XB=400.0,402.0,537.0,539.0,380,521.9501339999998 SURF_ID='surf1' /
&OBST XB=400.0,402.0,538.0,540.0,380,523.1982419999998 SURF_ID='surf1' /
&OBST XB=400.0,402.0,539.0,541.0,380,523.1982419999998 SURF_ID='surf1' /
&OBST XB=400.0,402.0,540.0,542.0,380,524.447266 SURF_ID='surf1' /
&OBST XB=400.0,402.0,541.0,543.0,380,524.447266 SURF_ID='surf1' /
&OBST XB=400.0,402.0,542.0,544.0,380,525.835205 SURF_ID='surf1' /
&OBST XB=400.0,402.0,543.0,545.0,380,525.835205 SURF_ID='surf1' /
&OBST XB=400.0,402.0,544.0,546.0,380,526.911865 SURF_ID='surf1' /
&OBST XB=400.0,402.0,545.0,547.0,380,526.911865 SURF_ID='surf1' /
&OBST XB=400.0,402.0,546.0,548.0,380,527.445801 SURF_ID='surf1' /
&OBST XB=400.0,402.0,547.0,549.0,380,527.445801 SURF_ID='surf1' /
&OBST XB=400.0,402.0,548.0,550.0,380,527.748108 SURF_ID='surf1' /
&OBST XB=400.0,402.0,549.0,551.0,380,527.748108 SURF_ID='surf1' /
&OBST XB=400.0,402.0,550.0,552.0,380,528.050476 SURF_ID='surf1' /
&OBST XB=400.0,402.0,551.0,553.0,380,528.050476 SURF_ID='surf1' /
&OBST XB=400.0,402.0,552.0,554.0,380,528.322632 SURF_ID='surf1' /
&OBST XB=400.0,402.0,553.0,555.0,380,528.322632 SURF_ID='surf1' /
&OBST XB=400.0,402.0,554.0,556.0,380,528.728943 SURF_ID='surf1' /
&OBST XB=400.0,402.0,555.0,557.0,380,528.728943 SURF_ID='surf1' /
&OBST XB=400.0,402.0,556.0,558.0,380,529.675354 SURF_ID='surf1' /
&OBST XB=400.0,402.0,557.0,559.0,380,529.675354 SURF_ID='surf1' /
&OBST XB=400.0,402.0,558.0,560.0,380,530.8651120000002 SURF_ID='surf1' /
&OBST XB=400.0,402.0,559.0,561.0,380,530.8651120000002 SURF_ID='surf1' /
&OBST XB=400.0,402.0,560.0,562.0,380,532.054077 SURF_ID='surf1' /
&OBST XB=400.0,402.0,561.0,563.0,380,532.054077 SURF_ID='surf1' /
&OBST XB=400.0,402.0,562.0,564.0,380,533.375427 SURF_ID='surf1' /
&OBST XB=400.0,402.0,563.0,565.0,380,533.375427 SURF_ID='surf1' /
&OBST XB=400.0,402.0,564.0,566.0,380,534.682861 SURF_ID='surf1' /
&OBST XB=400.0,402.0,565.0,567.0,380,534.682861 SURF_ID='surf1' /
&OBST XB=400.0,402.0,566.0,568.0,380,535.801636 SURF_ID='surf1' /
&OBST XB=400.0,402.0,567.0,569.0,380,535.801636 SURF_ID='surf1' /
&OBST XB=400.0,402.0,568.0,570.0,380,536.864685 SURF_ID='surf1' /
&OBST XB=400.0,402.0,569.0,571.0,380,536.864685 SURF_ID='surf1' /
&OBST XB=400.0,402.0,570.0,572.0,380,538.045288 SURF_ID='surf1' /
&OBST XB=400.0,402.0,571.0,573.0,380,538.045288 SURF_ID='surf1' /
&OBST XB=400.0,402.0,572.0,574.0,380,539.107605 SURF_ID='surf1' /
&OBST XB=400.0,402.0,573.0,575.0,380,539.107605 SURF_ID='surf1' /
&OBST XB=400.0,402.0,574.0,576.0,380,540.170654 SURF_ID='surf1' /
&OBST XB=400.0,402.0,575.0,577.0,380,540.170654 SURF_ID='surf1' /
&OBST XB=400.0,402.0,576.0,578.0,380,541.3117679999998 SURF_ID='surf1' /
&OBST XB=400.0,402.0,577.0,579.0,380,541.3117679999998 SURF_ID='surf1' /
&OBST XB=400.0,402.0,578.0,580.0,380,542.410889 SURF_ID='surf1' /
&OBST XB=400.0,402.0,579.0,581.0,380,542.410889 SURF_ID='surf1' /
&OBST XB=400.0,402.0,580.0,582.0,380,543.398071 SURF_ID='surf1' /
&OBST XB=400.0,402.0,581.0,583.0,380,543.398071 SURF_ID='surf1' /
&OBST XB=400.0,402.0,582.0,584.0,380,544.3847049999998 SURF_ID='surf1' /
&OBST XB=400.0,402.0,583.0,585.0,380,544.3847049999998 SURF_ID='surf1' /
&OBST XB=400.0,402.0,584.0,586.0,380,545.4812009999998 SURF_ID='surf1' /
&OBST XB=400.0,402.0,585.0,587.0,380,545.4812009999998 SURF_ID='surf1' /
&OBST XB=400.0,402.0,586.0,588.0,380,546.530334 SURF_ID='surf1' /
&OBST XB=400.0,402.0,587.0,589.0,380,546.530334 SURF_ID='surf1' /
&OBST XB=400.0,402.0,588.0,590.0,380,547.6680299999998 SURF_ID='surf1' /
&OBST XB=400.0,402.0,589.0,591.0,380,547.6680299999998 SURF_ID='surf1' /
&OBST XB=400.0,402.0,590.0,592.0,380,548.942322 SURF_ID='surf1' /
&OBST XB=400.0,402.0,591.0,593.0,380,548.942322 SURF_ID='surf1' /
&OBST XB=400.0,402.0,592.0,594.0,380,550.2156980000002 SURF_ID='surf1' /
&OBST XB=400.0,402.0,593.0,595.0,380,550.2156980000002 SURF_ID='surf1' /
&OBST XB=400.0,402.0,594.0,596.0,380,551.361633 SURF_ID='surf1' /
&OBST XB=400.0,402.0,595.0,597.0,380,551.361633 SURF_ID='surf1' /
&OBST XB=400.0,402.0,596.0,598.0,380,552.466553 SURF_ID='surf1' /
&OBST XB=400.0,402.0,597.0,599.0,380,552.466553 SURF_ID='surf1' /
&OBST XB=400.0,402.0,598.0,600.0,380,553.634155 SURF_ID='surf1' /
&OBST XB=400.0,402.0,599.0,601.0,380,553.634155 SURF_ID='surf1' /
&OBST XB=400.0,402.0,600.0,602.0,380,554.664185 SURF_ID='surf1' /
&OBST XB=401.0,403.0,400.0,402.0,380,486.052063 SURF_ID='surf1' /
&OBST XB=401.0,403.0,401.0,403.0,380,486.052063 SURF_ID='surf1' /
&OBST XB=401.0,403.0,402.0,404.0,380,485.82092300000005 SURF_ID='surf1' /
&OBST XB=401.0,403.0,403.0,405.0,380,485.82092300000005 SURF_ID='surf1' /
&OBST XB=401.0,403.0,404.0,406.0,380,485.52856399999996 SURF_ID='surf1' /
&OBST XB=401.0,403.0,405.0,407.0,380,485.52856399999996 SURF_ID='surf1' /
&OBST XB=401.0,403.0,406.0,408.0,380,485.23602300000016 SURF_ID='surf1' /
&OBST XB=401.0,403.0,407.0,409.0,380,485.23602300000016 SURF_ID='surf1' /
&OBST XB=401.0,403.0,408.0,410.0,380,484.91091900000004 SURF_ID='surf1' /
&OBST XB=401.0,403.0,409.0,411.0,380,484.91091900000004 SURF_ID='surf1' /
&OBST XB=401.0,403.0,410.0,412.0,380,484.53949000000006 SURF_ID='surf1' /
&OBST XB=401.0,403.0,411.0,413.0,380,484.53949000000006 SURF_ID='surf1' /
&OBST XB=401.0,403.0,412.0,414.0,380,484.11358600000005 SURF_ID='surf1' /
&OBST XB=401.0,403.0,413.0,415.0,380,484.11358600000005 SURF_ID='surf1' /
&OBST XB=401.0,403.0,414.0,416.0,380,483.625732 SURF_ID='surf1' /
&OBST XB=401.0,403.0,415.0,417.0,380,483.625732 SURF_ID='surf1' /
&OBST XB=401.0,403.0,416.0,418.0,380,483.08352699999995 SURF_ID='surf1' /
&OBST XB=401.0,403.0,417.0,419.0,380,483.08352699999995 SURF_ID='surf1' /
&OBST XB=401.0,403.0,418.0,420.0,380,482.59533700000003 SURF_ID='surf1' /
&OBST XB=401.0,403.0,419.0,421.0,380,482.59533700000003 SURF_ID='surf1' /
&OBST XB=401.0,403.0,420.0,422.0,380,482.14700300000004 SURF_ID='surf1' /
&OBST XB=401.0,403.0,421.0,423.0,380,482.14700300000004 SURF_ID='surf1' /
&OBST XB=401.0,403.0,422.0,424.0,380,481.876678 SURF_ID='surf1' /
&OBST XB=401.0,403.0,423.0,425.0,380,481.876678 SURF_ID='surf1' /
&OBST XB=401.0,403.0,424.0,426.0,380,481.79879800000003 SURF_ID='surf1' /
&OBST XB=401.0,403.0,425.0,427.0,380,481.79879800000003 SURF_ID='surf1' /
&OBST XB=401.0,403.0,426.0,428.0,380,481.728729 SURF_ID='surf1' /
&OBST XB=401.0,403.0,427.0,429.0,380,481.728729 SURF_ID='surf1' /
&OBST XB=401.0,403.0,428.0,430.0,380,481.6586 SURF_ID='surf1' /
&OBST XB=401.0,403.0,429.0,431.0,380,481.6586 SURF_ID='surf1' /
&OBST XB=401.0,403.0,430.0,432.0,380,481.696228 SURF_ID='surf1' /
&OBST XB=401.0,403.0,431.0,433.0,380,481.696228 SURF_ID='surf1' /
&OBST XB=401.0,403.0,432.0,434.0,380,482.52969400000006 SURF_ID='surf1' /
&OBST XB=401.0,403.0,433.0,435.0,380,482.52969400000006 SURF_ID='surf1' /
&OBST XB=401.0,403.0,434.0,436.0,380,484.23294100000004 SURF_ID='surf1' /
&OBST XB=401.0,403.0,435.0,437.0,380,484.23294100000004 SURF_ID='surf1' /
&OBST XB=401.0,403.0,436.0,438.0,380,486.12451200000004 SURF_ID='surf1' /
&OBST XB=401.0,403.0,437.0,439.0,380,486.12451200000004 SURF_ID='surf1' /
&OBST XB=401.0,403.0,438.0,440.0,380,488.01614400000005 SURF_ID='surf1' /
&OBST XB=401.0,403.0,439.0,441.0,380,488.01614400000005 SURF_ID='surf1' /
&OBST XB=401.0,403.0,440.0,442.0,380,489.71935999999994 SURF_ID='surf1' /
&OBST XB=401.0,403.0,441.0,443.0,380,489.71935999999994 SURF_ID='surf1' /
&OBST XB=401.0,403.0,442.0,444.0,380,490.789917 SURF_ID='surf1' /
&OBST XB=401.0,403.0,443.0,445.0,380,490.789917 SURF_ID='surf1' /
&OBST XB=401.0,403.0,444.0,446.0,380,491.316528 SURF_ID='surf1' /
&OBST XB=401.0,403.0,445.0,447.0,380,491.316528 SURF_ID='surf1' /
&OBST XB=401.0,403.0,446.0,448.0,380,491.69967699999995 SURF_ID='surf1' /
&OBST XB=401.0,403.0,447.0,449.0,380,491.69967699999995 SURF_ID='surf1' /
&OBST XB=401.0,403.0,448.0,450.0,380,492.08255 SURF_ID='surf1' /
&OBST XB=401.0,403.0,449.0,451.0,380,492.08255 SURF_ID='surf1' /
&OBST XB=401.0,403.0,450.0,452.0,380,492.508057 SURF_ID='surf1' /
&OBST XB=401.0,403.0,451.0,453.0,380,492.508057 SURF_ID='surf1' /
&OBST XB=401.0,403.0,452.0,454.0,380,493.220154 SURF_ID='surf1' /
&OBST XB=401.0,403.0,453.0,455.0,380,493.220154 SURF_ID='surf1' /
&OBST XB=401.0,403.0,454.0,456.0,380,494.173004 SURF_ID='surf1' /
&OBST XB=401.0,403.0,455.0,457.0,380,494.173004 SURF_ID='surf1' /
&OBST XB=401.0,403.0,456.0,458.0,380,495.19390899999996 SURF_ID='surf1' /
&OBST XB=401.0,403.0,457.0,459.0,380,495.19390899999996 SURF_ID='surf1' /
&OBST XB=401.0,403.0,458.0,460.0,380,496.32769800000005 SURF_ID='surf1' /
&OBST XB=401.0,403.0,459.0,461.0,380,496.32769800000005 SURF_ID='surf1' /
&OBST XB=401.0,403.0,460.0,462.0,380,497.3479 SURF_ID='surf1' /
&OBST XB=401.0,403.0,461.0,463.0,380,497.3479 SURF_ID='surf1' /
&OBST XB=401.0,403.0,462.0,464.0,380,498.35220300000003 SURF_ID='surf1' /
&OBST XB=401.0,403.0,463.0,465.0,380,498.35220300000003 SURF_ID='surf1' /
&OBST XB=401.0,403.0,464.0,466.0,380,499.440033 SURF_ID='surf1' /
&OBST XB=401.0,403.0,465.0,467.0,380,499.440033 SURF_ID='surf1' /
&OBST XB=401.0,403.0,466.0,468.0,380,500.51443499999993 SURF_ID='surf1' /
&OBST XB=401.0,403.0,467.0,469.0,380,500.51443499999993 SURF_ID='surf1' /
&OBST XB=401.0,403.0,468.0,470.0,380,501.481293 SURF_ID='surf1' /
&OBST XB=401.0,403.0,469.0,471.0,380,501.481293 SURF_ID='surf1' /
&OBST XB=401.0,403.0,470.0,472.0,380,502.44754000000006 SURF_ID='surf1' /
&OBST XB=401.0,403.0,471.0,473.0,380,502.44754000000006 SURF_ID='surf1' /
&OBST XB=401.0,403.0,472.0,474.0,380,503.45834400000007 SURF_ID='surf1' /
&OBST XB=401.0,403.0,473.0,475.0,380,503.45834400000007 SURF_ID='surf1' /
&OBST XB=401.0,403.0,474.0,476.0,380,504.2612 SURF_ID='surf1' /
&OBST XB=401.0,403.0,475.0,477.0,380,504.2612 SURF_ID='surf1' /
&OBST XB=401.0,403.0,476.0,478.0,380,505.000824 SURF_ID='surf1' /
&OBST XB=401.0,403.0,477.0,479.0,380,505.000824 SURF_ID='surf1' /
&OBST XB=401.0,403.0,478.0,480.0,380,505.82269299999996 SURF_ID='surf1' /
&OBST XB=401.0,403.0,479.0,481.0,380,505.82269299999996 SURF_ID='surf1' /
&OBST XB=401.0,403.0,480.0,482.0,380,506.64407300000005 SURF_ID='surf1' /
&OBST XB=401.0,403.0,481.0,483.0,380,506.64407300000005 SURF_ID='surf1' /
&OBST XB=401.0,403.0,482.0,484.0,380,507.36477699999995 SURF_ID='surf1' /
&OBST XB=401.0,403.0,483.0,485.0,380,507.36477699999995 SURF_ID='surf1' /
&OBST XB=401.0,403.0,484.0,486.0,380,508.01062 SURF_ID='surf1' /
&OBST XB=401.0,403.0,485.0,487.0,380,508.01062 SURF_ID='surf1' /
&OBST XB=401.0,403.0,486.0,488.0,380,508.681763 SURF_ID='surf1' /
&OBST XB=401.0,403.0,487.0,489.0,380,508.681763 SURF_ID='surf1' /
&OBST XB=401.0,403.0,488.0,490.0,380,509.28576699999996 SURF_ID='surf1' /
&OBST XB=401.0,403.0,489.0,491.0,380,509.28576699999996 SURF_ID='surf1' /
&OBST XB=401.0,403.0,490.0,492.0,380,509.889709 SURF_ID='surf1' /
&OBST XB=401.0,403.0,491.0,493.0,380,509.889709 SURF_ID='surf1' /
&OBST XB=401.0,403.0,492.0,494.0,380,510.545898 SURF_ID='surf1' /
&OBST XB=401.0,403.0,493.0,495.0,380,510.545898 SURF_ID='surf1' /
&OBST XB=401.0,403.0,494.0,496.0,380,511.12524400000007 SURF_ID='surf1' /
&OBST XB=401.0,403.0,495.0,497.0,380,511.12524400000007 SURF_ID='surf1' /
&OBST XB=401.0,403.0,496.0,498.0,380,511.59082 SURF_ID='surf1' /
&OBST XB=401.0,403.0,497.0,499.0,380,511.59082 SURF_ID='surf1' /
&OBST XB=401.0,403.0,498.0,500.0,380,512.056458 SURF_ID='surf1' /
&OBST XB=401.0,403.0,499.0,501.0,380,512.056458 SURF_ID='surf1' /
&OBST XB=401.0,403.0,500.0,502.0,380,512.573853 SURF_ID='surf1' /
&OBST XB=401.0,403.0,501.0,503.0,380,512.573853 SURF_ID='surf1' /
&OBST XB=401.0,403.0,502.0,504.0,380,513.03949 SURF_ID='surf1' /
&OBST XB=401.0,403.0,503.0,505.0,380,513.03949 SURF_ID='surf1' /
&OBST XB=401.0,403.0,504.0,506.0,380,513.424683 SURF_ID='surf1' /
&OBST XB=401.0,403.0,505.0,507.0,380,513.424683 SURF_ID='surf1' /
&OBST XB=401.0,403.0,506.0,508.0,380,513.775879 SURF_ID='surf1' /
&OBST XB=401.0,403.0,507.0,509.0,380,513.775879 SURF_ID='surf1' /
&OBST XB=401.0,403.0,508.0,510.0,380,514.1218259999998 SURF_ID='surf1' /
&OBST XB=401.0,403.0,509.0,511.0,380,514.1218259999998 SURF_ID='surf1' /
&OBST XB=401.0,403.0,510.0,512.0,380,514.433167 SURF_ID='surf1' /
&OBST XB=401.0,403.0,511.0,513.0,380,514.433167 SURF_ID='surf1' /
&OBST XB=401.0,403.0,512.0,514.0,380,514.744507 SURF_ID='surf1' /
&OBST XB=401.0,403.0,513.0,515.0,380,514.744507 SURF_ID='surf1' /
&OBST XB=401.0,403.0,514.0,516.0,380,515.083374 SURF_ID='surf1' /
&OBST XB=401.0,403.0,515.0,517.0,380,515.083374 SURF_ID='surf1' /
&OBST XB=401.0,403.0,516.0,518.0,380,515.381165 SURF_ID='surf1' /
&OBST XB=401.0,403.0,517.0,519.0,380,515.381165 SURF_ID='surf1' /
&OBST XB=401.0,403.0,518.0,520.0,380,515.678284 SURF_ID='surf1' /
&OBST XB=401.0,403.0,519.0,521.0,380,515.678284 SURF_ID='surf1' /
&OBST XB=401.0,403.0,520.0,522.0,380,516.008484 SURF_ID='surf1' /
&OBST XB=401.0,403.0,521.0,523.0,380,516.008484 SURF_ID='surf1' /
&OBST XB=401.0,403.0,522.0,524.0,380,516.338684 SURF_ID='surf1' /
&OBST XB=401.0,403.0,523.0,525.0,380,516.338684 SURF_ID='surf1' /
&OBST XB=401.0,403.0,524.0,526.0,380,516.7843019999998 SURF_ID='surf1' /
&OBST XB=401.0,403.0,525.0,527.0,380,516.7843019999998 SURF_ID='surf1' /
&OBST XB=401.0,403.0,526.0,528.0,380,517.466309 SURF_ID='surf1' /
&OBST XB=401.0,403.0,527.0,529.0,380,517.466309 SURF_ID='surf1' /
&OBST XB=401.0,403.0,528.0,530.0,380,518.269836 SURF_ID='surf1' /
&OBST XB=401.0,403.0,529.0,531.0,380,518.269836 SURF_ID='surf1' /
&OBST XB=401.0,403.0,530.0,532.0,380,518.993347 SURF_ID='surf1' /
&OBST XB=401.0,403.0,531.0,533.0,380,518.993347 SURF_ID='surf1' /
&OBST XB=401.0,403.0,532.0,534.0,380,519.7167969999998 SURF_ID='surf1' /
&OBST XB=401.0,403.0,533.0,535.0,380,519.7167969999998 SURF_ID='surf1' /
&OBST XB=401.0,403.0,534.0,536.0,380,520.687866 SURF_ID='surf1' /
&OBST XB=401.0,403.0,535.0,537.0,380,520.687866 SURF_ID='surf1' /
&OBST XB=401.0,403.0,536.0,538.0,380,521.9501339999998 SURF_ID='surf1' /
&OBST XB=401.0,403.0,537.0,539.0,380,521.9501339999998 SURF_ID='surf1' /
&OBST XB=401.0,403.0,538.0,540.0,380,523.1982419999998 SURF_ID='surf1' /
&OBST XB=401.0,403.0,539.0,541.0,380,523.1982419999998 SURF_ID='surf1' /
&OBST XB=401.0,403.0,540.0,542.0,380,524.447266 SURF_ID='surf1' /
&OBST XB=401.0,403.0,541.0,543.0,380,524.447266 SURF_ID='surf1' /
&OBST XB=401.0,403.0,542.0,544.0,380,525.835205 SURF_ID='surf1' /
&OBST XB=401.0,403.0,543.0,545.0,380,525.835205 SURF_ID='surf1' /
&OBST XB=401.0,403.0,544.0,546.0,380,526.911865 SURF_ID='surf1' /
&OBST XB=401.0,403.0,545.0,547.0,380,526.911865 SURF_ID='surf1' /
&OBST XB=401.0,403.0,546.0,548.0,380,527.445801 SURF_ID='surf1' /
&OBST XB=401.0,403.0,547.0,549.0,380,527.445801 SURF_ID='surf1' /
&OBST XB=401.0,403.0,548.0,550.0,380,527.748108 SURF_ID='surf1' /
&OBST XB=401.0,403.0,549.0,551.0,380,527.748108 SURF_ID='surf1' /
&OBST XB=401.0,403.0,550.0,552.0,380,528.050476 SURF_ID='surf1' /
&OBST XB=401.0,403.0,551.0,553.0,380,528.050476 SURF_ID='surf1' /
&OBST XB=401.0,403.0,552.0,554.0,380,528.322632 SURF_ID='surf1' /
&OBST XB=401.0,403.0,553.0,555.0,380,528.322632 SURF_ID='surf1' /
&OBST XB=401.0,403.0,554.0,556.0,380,528.728943 SURF_ID='surf1' /
&OBST XB=401.0,403.0,555.0,557.0,380,528.728943 SURF_ID='surf1' /
&OBST XB=401.0,403.0,556.0,558.0,380,529.675354 SURF_ID='surf1' /
&OBST XB=401.0,403.0,557.0,559.0,380,529.675354 SURF_ID='surf1' /
&OBST XB=401.0,403.0,558.0,560.0,380,530.8651120000002 SURF_ID='surf1' /
&OBST XB=401.0,403.0,559.0,561.0,380,530.8651120000002 SURF_ID='surf1' /
&OBST XB=401.0,403.0,560.0,562.0,380,532.054077 SURF_ID='surf1' /
&OBST XB=401.0,403.0,561.0,563.0,380,532.054077 SURF_ID='surf1' /
&OBST XB=401.0,403.0,562.0,564.0,380,533.375427 SURF_ID='surf1' /
&OBST XB=401.0,403.0,563.0,565.0,380,533.375427 SURF_ID='surf1' /
&OBST XB=401.0,403.0,564.0,566.0,380,534.682861 SURF_ID='surf1' /
&OBST XB=401.0,403.0,565.0,567.0,380,534.682861 SURF_ID='surf1' /
&OBST XB=401.0,403.0,566.0,568.0,380,535.801636 SURF_ID='surf1' /
&OBST XB=401.0,403.0,567.0,569.0,380,535.801636 SURF_ID='surf1' /
&OBST XB=401.0,403.0,568.0,570.0,380,536.864685 SURF_ID='surf1' /
&OBST XB=401.0,403.0,569.0,571.0,380,536.864685 SURF_ID='surf1' /
&OBST XB=401.0,403.0,570.0,572.0,380,538.045288 SURF_ID='surf1' /
&OBST XB=401.0,403.0,571.0,573.0,380,538.045288 SURF_ID='surf1' /
&OBST XB=401.0,403.0,572.0,574.0,380,539.107605 SURF_ID='surf1' /
&OBST XB=401.0,403.0,573.0,575.0,380,539.107605 SURF_ID='surf1' /
&OBST XB=401.0,403.0,574.0,576.0,380,540.170654 SURF_ID='surf1' /
&OBST XB=401.0,403.0,575.0,577.0,380,540.170654 SURF_ID='surf1' /
&OBST XB=401.0,403.0,576.0,578.0,380,541.3117679999998 SURF_ID='surf1' /
&OBST XB=401.0,403.0,577.0,579.0,380,541.3117679999998 SURF_ID='surf1' /
&OBST XB=401.0,403.0,578.0,580.0,380,542.410889 SURF_ID='surf1' /
&OBST XB=401.0,403.0,579.0,581.0,380,542.410889 SURF_ID='surf1' /
&OBST XB=401.0,403.0,580.0,582.0,380,543.398071 SURF_ID='surf1' /
&OBST XB=401.0,403.0,581.0,583.0,380,543.398071 SURF_ID='surf1' /
&OBST XB=401.0,403.0,582.0,584.0,380,544.3847049999998 SURF_ID='surf1' /
&OBST XB=401.0,403.0,583.0,585.0,380,544.3847049999998 SURF_ID='surf1' /
&OBST XB=401.0,403.0,584.0,586.0,380,545.4812009999998 SURF_ID='surf1' /
&OBST XB=401.0,403.0,585.0,587.0,380,545.4812009999998 SURF_ID='surf1' /
&OBST XB=401.0,403.0,586.0,588.0,380,546.530334 SURF_ID='surf1' /
&OBST XB=401.0,403.0,587.0,589.0,380,546.530334 SURF_ID='surf1' /
&OBST XB=401.0,403.0,588.0,590.0,380,547.6680299999998 SURF_ID='surf1' /
&OBST XB=401.0,403.0,589.0,591.0,380,547.6680299999998 SURF_ID='surf1' /
&OBST XB=401.0,403.0,590.0,592.0,380,548.942322 SURF_ID='surf1' /