&HEAD CHID='Region9', TITLE='Simulation of Chimney Tops fire' /

&MESH IJK=50,50,30, XB=360,460.0,500,600.0,380,440.0, MULT_ID='mesh' / 
&MULT ID='mesh', DX=100.0, DY=100.0, DZ=60.0, I_LOWER=0, I_UPPER=1, J_LOWER=0, J_UPPER=1, K_UPPER=3 /  

&MISC TMPA=30., TERRAIN_CASE=.TRUE., TERRAIN_IMAGE='Region9.png', VERBOSE=.TRUE., RESTART=.FALSE., PROJECTION=.TRUE.  /
&TIME T_BEGIN = 420.0, T_END = 480.0 / 

&DUMP NFRAMES=120, DT_PART=100., CFL_FILE=.TRUE., DT_PL3D=60.0 /  
&WIND DIRECTION=135., SPEED=5., SPONGE_CELLS=0, STRATIFICATION=.FALSE. /

&SLCF XB=360,560,500,700,380,620, QUANTITY='HRRPUV', CELL_CENTERED=.TRUE. /  

&CATF OTHER_FILES='../Region8/Region8.ini' / 


&RAMP ID='fire', T= 420, F=1. /
&RAMP ID='fire', T= 425.0, F=1. /
&RAMP ID='fire', T= 430.0, F=0. /
&VENT MB='XMIN', SURF_ID='OPEN' /  
&VENT MB='XMAX', SURF_ID='OPEN' /  
&VENT MB='YMIN', SURF_ID='OPEN' /  
&VENT MB='YMAX', SURF_ID='OPEN' /  
&VENT MB='ZMAX', SURF_ID='OPEN' /  

&REAC FUEL='CELLULOSE', C=6, H=10, O=5, SOOT_YIELD=0.005 / 

&SPEC ID='WATER VAPOR' / 

&SURF ID                        = 'grass' 
      MATL_ID(1,1:2)            = 'GENERIC VEGETATION','MOISTURE'
      MATL_MASS_FRACTION(1,1:2) = 0.937,0.063
      THICKNESS                 = 0.0002
      LENGTH                    = 0.21
      HEAT_TRANSFER_COEFFICIENT = 30.
      GEOMETRY                  = 'CYLINDRICAL' /

&SURF ID                        = 'needles' 
      MATL_ID(1,1:2)            = 'GENERIC VEGETATION','MOISTURE'
      MATL_MASS_FRACTION(1,1:2) = 0.95,0.05
      THICKNESS                 = 0.02
      LENGTH                    = 0.21
      HEAT_TRANSFER_COEFFICIENT = 30.
      GEOMETRY                  = 'CYLINDRICAL' /

&MATL ID = 'GENERIC VEGETATION' 
      DENSITY = 500.
      CONDUCTIVITY = 0.1
      SPECIFIC_HEAT= 1.5
      REFERENCE_TEMPERATURE = 200
      PYROLYSIS_RANGE = 30.
      NU_MATL = 0.2
      NU_SPEC = 0.8 
      SPEC_ID = 'CELLULOSE'
      HEAT_OF_COMBUSTION = 15600.
      HEAT_OF_REACTION = 418.
      MATL_ID  = 'CHAR' /

&MATL ID = 'MOISTURE' 
      DENSITY = 1000.
      CONDUCTIVITY = 0.1
      SPECIFIC_HEAT= 4.184
      REFERENCE_TEMPERATURE = 100.
      PYROLYSIS_RANGE = 10.
      NU_SPEC = 1.0 
      SPEC_ID = 'WATER VAPOR'
      HEAT_OF_REACTION = 2500./

&MATL ID = 'CHAR'
      DENSITY  = 100.
      CONDUCTIVITY = 0.1 
      SPECIFIC_HEAT = 1.0 / 

&MATL ID='DIRT'
      CONDUCTIVITY = 0.25
      SPECIFIC_HEAT = 2.
     DENSITY = 1300. /

&PART ID='foliage', DRAG_COEFFICIENT=1.0, SURF_ID='needles', SAMPLING_FACTOR=5,
      QUANTITIES='PARTICLE TEMPERATURE','PARTICLE MASS','PARTICLE DIAMETER', STATIC=.TRUE., COLOR='GREEN' / 

&PART ID='grass', DRAG_COEFFICIENT=1.0, SURF_ID='grass', SAMPLING_FACTOR=958,
      QUANTITIES='PARTICLE TEMPERATURE','PARTICLE MASS','PARTICLE DIAMETER', STATIC=.TRUE., COLOR='BROWN' /

&SURF ID = 'surf1', RGB = 122,117,48, MATL_ID='DIRT', THICKNESS=0.2, PART_ID='grass', PARTICLE_SURFACE_DENSITY=1.0 / 
&SURF ID = 'surf2', RGB = 0,100,0, MATL_ID='DIRT', THICKNESS=0.2 / 

&OBST XB=360.0,362.0,500.0,502.0,380,500.702454 SURF_ID='surf1' /
&OBST XB=360.0,362.0,501.0,503.0,380,500.702454 SURF_ID='surf1' /
&OBST XB=360.0,362.0,502.0,504.0,380,501.18521100000004 SURF_ID='surf1' /
&OBST XB=360.0,362.0,503.0,505.0,380,501.18521100000004 SURF_ID='surf1' /
&OBST XB=360.0,362.0,504.0,506.0,380,501.848755 SURF_ID='surf1' /
&OBST XB=360.0,362.0,505.0,507.0,380,501.848755 SURF_ID='surf1' /
&OBST XB=360.0,362.0,506.0,508.0,380,502.759766 SURF_ID='surf1' /
&OBST XB=360.0,362.0,507.0,509.0,380,502.759766 SURF_ID='surf1' /
&OBST XB=360.0,362.0,508.0,510.0,380,503.683716 SURF_ID='surf1' /
&OBST XB=360.0,362.0,509.0,511.0,380,503.683716 SURF_ID='surf1' /
&OBST XB=360.0,362.0,510.0,512.0,380,504.515167 SURF_ID='surf1' /
&OBST XB=360.0,362.0,511.0,513.0,380,504.515167 SURF_ID='surf1' /
&OBST XB=360.0,362.0,512.0,514.0,380,505.34661900000003 SURF_ID='surf1' /
&OBST XB=360.0,362.0,513.0,515.0,380,505.34661900000003 SURF_ID='surf1' /
&OBST XB=360.0,362.0,514.0,516.0,380,506.326721 SURF_ID='surf1' /
&OBST XB=360.0,362.0,515.0,517.0,380,506.326721 SURF_ID='surf1' /
&OBST XB=360.0,362.0,516.0,518.0,380,507.265808 SURF_ID='surf1' /
&OBST XB=360.0,362.0,517.0,519.0,380,507.265808 SURF_ID='surf1' /
&OBST XB=360.0,362.0,518.0,520.0,380,508.21313499999997 SURF_ID='surf1' /
&OBST XB=360.0,362.0,519.0,521.0,380,508.21313499999997 SURF_ID='surf1' /
&OBST XB=360.0,362.0,520.0,522.0,380,509.26586900000007 SURF_ID='surf1' /
&OBST XB=360.0,362.0,521.0,523.0,380,509.26586900000007 SURF_ID='surf1' /
&OBST XB=360.0,362.0,522.0,524.0,380,510.318604 SURF_ID='surf1' /
&OBST XB=360.0,362.0,523.0,525.0,380,510.318604 SURF_ID='surf1' /
&OBST XB=360.0,362.0,524.0,526.0,380,511.272217 SURF_ID='surf1' /
&OBST XB=360.0,362.0,525.0,527.0,380,511.272217 SURF_ID='surf1' /
&OBST XB=360.0,362.0,526.0,528.0,380,512.2351679999998 SURF_ID='surf1' /
&OBST XB=360.0,362.0,527.0,529.0,380,512.2351679999998 SURF_ID='surf1' /
&OBST XB=360.0,362.0,528.0,530.0,380,513.307312 SURF_ID='surf1' /
&OBST XB=360.0,362.0,529.0,531.0,380,513.307312 SURF_ID='surf1' /
&OBST XB=360.0,362.0,530.0,532.0,380,514.272583 SURF_ID='surf1' /
&OBST XB=360.0,362.0,531.0,533.0,380,514.272583 SURF_ID='surf1' /
&OBST XB=360.0,362.0,532.0,534.0,380,515.237976 SURF_ID='surf1' /
&OBST XB=360.0,362.0,533.0,535.0,380,515.237976 SURF_ID='surf1' /
&OBST XB=360.0,362.0,534.0,536.0,380,516.342712 SURF_ID='surf1' /
&OBST XB=360.0,362.0,535.0,537.0,380,516.342712 SURF_ID='surf1' /
&OBST XB=360.0,362.0,536.0,538.0,380,517.502808 SURF_ID='surf1' /
&OBST XB=360.0,362.0,537.0,539.0,380,517.502808 SURF_ID='surf1' /
&OBST XB=360.0,362.0,538.0,540.0,380,518.568176 SURF_ID='surf1' /
&OBST XB=360.0,362.0,539.0,541.0,380,518.568176 SURF_ID='surf1' /
&OBST XB=360.0,362.0,540.0,542.0,380,519.634277 SURF_ID='surf1' /
&OBST XB=360.0,362.0,541.0,543.0,380,519.634277 SURF_ID='surf1' /
&OBST XB=360.0,362.0,542.0,544.0,380,520.819031 SURF_ID='surf1' /
&OBST XB=360.0,362.0,543.0,545.0,380,520.819031 SURF_ID='surf1' /
&OBST XB=360.0,362.0,544.0,546.0,380,521.8476559999998 SURF_ID='surf1' /
&OBST XB=360.0,362.0,545.0,547.0,380,521.8476559999998 SURF_ID='surf1' /
&OBST XB=360.0,362.0,546.0,548.0,380,522.758545 SURF_ID='surf1' /
&OBST XB=360.0,362.0,547.0,549.0,380,522.758545 SURF_ID='surf1' /
&OBST XB=360.0,362.0,548.0,550.0,380,523.7069700000002 SURF_ID='surf1' /
&OBST XB=360.0,362.0,549.0,551.0,380,523.7069700000002 SURF_ID='surf1' /
&OBST XB=360.0,362.0,550.0,552.0,380,524.655396 SURF_ID='surf1' /
&OBST XB=360.0,362.0,551.0,553.0,380,524.655396 SURF_ID='surf1' /
&OBST XB=360.0,362.0,552.0,554.0,380,525.509399 SURF_ID='surf1' /
&OBST XB=360.0,362.0,553.0,555.0,380,525.509399 SURF_ID='surf1' /
&OBST XB=360.0,362.0,554.0,556.0,380,526.290039 SURF_ID='surf1' /
&OBST XB=360.0,362.0,555.0,557.0,380,526.290039 SURF_ID='surf1' /
&OBST XB=360.0,362.0,556.0,558.0,380,526.8867190000002 SURF_ID='surf1' /
&OBST XB=360.0,362.0,557.0,559.0,380,526.8867190000002 SURF_ID='surf1' /
&OBST XB=360.0,362.0,558.0,560.0,380,527.238647 SURF_ID='surf1' /
&OBST XB=360.0,362.0,559.0,561.0,380,527.238647 SURF_ID='surf1' /
&OBST XB=360.0,362.0,560.0,562.0,380,527.590332 SURF_ID='surf1' /
&OBST XB=360.0,362.0,561.0,563.0,380,527.590332 SURF_ID='surf1' /
&OBST XB=360.0,362.0,562.0,564.0,380,527.9812009999998 SURF_ID='surf1' /
&OBST XB=360.0,362.0,563.0,565.0,380,527.9812009999998 SURF_ID='surf1' /
&OBST XB=360.0,362.0,564.0,566.0,380,528.440796 SURF_ID='surf1' /
&OBST XB=360.0,362.0,565.0,567.0,380,528.440796 SURF_ID='surf1' /
&OBST XB=360.0,362.0,566.0,568.0,380,529.124084 SURF_ID='surf1' /
&OBST XB=360.0,362.0,567.0,569.0,380,529.124084 SURF_ID='surf1' /
&OBST XB=360.0,362.0,568.0,570.0,380,530.067444 SURF_ID='surf1' /
&OBST XB=360.0,362.0,569.0,571.0,380,530.067444 SURF_ID='surf1' /
&OBST XB=360.0,362.0,570.0,572.0,380,531.1151120000002 SURF_ID='surf1' /
&OBST XB=360.0,362.0,571.0,573.0,380,531.1151120000002 SURF_ID='surf1' /
&OBST XB=360.0,362.0,572.0,574.0,380,532.057861 SURF_ID='surf1' /
&OBST XB=360.0,362.0,573.0,575.0,380,532.057861 SURF_ID='surf1' /
&OBST XB=360.0,362.0,574.0,576.0,380,533.001221 SURF_ID='surf1' /
&OBST XB=360.0,362.0,575.0,577.0,380,533.001221 SURF_ID='surf1' /
&OBST XB=360.0,362.0,576.0,578.0,380,533.9530030000002 SURF_ID='surf1' /
&OBST XB=360.0,362.0,577.0,579.0,380,533.9530030000002 SURF_ID='surf1' /
&OBST XB=360.0,362.0,578.0,580.0,380,534.803589 SURF_ID='surf1' /
&OBST XB=360.0,362.0,579.0,581.0,380,534.803589 SURF_ID='surf1' /
&OBST XB=360.0,362.0,580.0,582.0,380,535.56488 SURF_ID='surf1' /
&OBST XB=360.0,362.0,581.0,583.0,380,535.56488 SURF_ID='surf1' /
&OBST XB=360.0,362.0,582.0,584.0,380,536.325562 SURF_ID='surf1' /
&OBST XB=360.0,362.0,583.0,585.0,380,536.325562 SURF_ID='surf1' /
&OBST XB=360.0,362.0,584.0,586.0,380,537.171021 SURF_ID='surf1' /
&OBST XB=360.0,362.0,585.0,587.0,380,537.171021 SURF_ID='surf1' /
&OBST XB=360.0,362.0,586.0,588.0,380,537.895874 SURF_ID='surf1' /
&OBST XB=360.0,362.0,587.0,589.0,380,537.895874 SURF_ID='surf1' /
&OBST XB=360.0,362.0,588.0,590.0,380,538.568604 SURF_ID='surf1' /
&OBST XB=360.0,362.0,589.0,591.0,380,538.568604 SURF_ID='surf1' /
&OBST XB=360.0,362.0,590.0,592.0,380,539.310425 SURF_ID='surf1' /
&OBST XB=360.0,362.0,591.0,593.0,380,539.310425 SURF_ID='surf1' /
&OBST XB=360.0,362.0,592.0,594.0,380,540.051697 SURF_ID='surf1' /
&OBST XB=360.0,362.0,593.0,595.0,380,540.051697 SURF_ID='surf1' /
&OBST XB=360.0,362.0,594.0,596.0,380,540.71875 SURF_ID='surf1' /
&OBST XB=360.0,362.0,595.0,597.0,380,540.71875 SURF_ID='surf1' /
&OBST XB=360.0,362.0,596.0,598.0,380,541.435303 SURF_ID='surf1' /
&OBST XB=360.0,362.0,597.0,599.0,380,541.435303 SURF_ID='surf1' /
&OBST XB=360.0,362.0,598.0,600.0,380,542.302124 SURF_ID='surf1' /
&OBST XB=360.0,362.0,599.0,601.0,380,542.302124 SURF_ID='surf1' /
&OBST XB=360.0,362.0,600.0,602.0,380,543.106567 SURF_ID='surf1' /
&OBST XB=360.0,362.0,601.0,603.0,380,543.106567 SURF_ID='surf1' /
&OBST XB=360.0,362.0,602.0,604.0,380,543.910889 SURF_ID='surf1' /
&OBST XB=360.0,362.0,603.0,605.0,380,543.910889 SURF_ID='surf1' /
&OBST XB=360.0,362.0,604.0,606.0,380,544.804321 SURF_ID='surf1' /
&OBST XB=360.0,362.0,605.0,607.0,380,544.804321 SURF_ID='surf1' /
&OBST XB=360.0,362.0,606.0,608.0,380,545.713745 SURF_ID='surf1' /
&OBST XB=360.0,362.0,607.0,609.0,380,545.713745 SURF_ID='surf1' /
&OBST XB=360.0,362.0,608.0,610.0,380,546.556091 SURF_ID='surf1' /
&OBST XB=360.0,362.0,609.0,611.0,380,546.556091 SURF_ID='surf1' /
&OBST XB=360.0,362.0,610.0,612.0,380,547.409607 SURF_ID='surf1' /
&OBST XB=360.0,362.0,611.0,613.0,380,547.409607 SURF_ID='surf1' /
&OBST XB=360.0,362.0,612.0,614.0,380,548.3580929999998 SURF_ID='surf1' /
&OBST XB=360.0,362.0,613.0,615.0,380,548.3580929999998 SURF_ID='surf1' /
&OBST XB=360.0,362.0,614.0,616.0,380,549.21167 SURF_ID='surf1' /
&OBST XB=360.0,362.0,615.0,617.0,380,549.21167 SURF_ID='surf1' /
&OBST XB=360.0,362.0,616.0,618.0,380,550.0460820000002 SURF_ID='surf1' /
&OBST XB=360.0,362.0,617.0,619.0,380,550.0460820000002 SURF_ID='surf1' /
&OBST XB=360.0,362.0,618.0,620.0,380,550.920166 SURF_ID='surf1' /
&OBST XB=360.0,362.0,619.0,621.0,380,550.920166 SURF_ID='surf1' /
&OBST XB=360.0,362.0,620.0,622.0,380,551.758057 SURF_ID='surf1' /
&OBST XB=360.0,362.0,621.0,623.0,380,551.758057 SURF_ID='surf1' /
&OBST XB=360.0,362.0,622.0,624.0,380,552.512085 SURF_ID='surf1' /
&OBST XB=360.0,362.0,623.0,625.0,380,552.512085 SURF_ID='surf1' /
&OBST XB=360.0,362.0,624.0,626.0,380,553.266113 SURF_ID='surf1' /
&OBST XB=360.0,362.0,625.0,627.0,380,553.266113 SURF_ID='surf1' /
&OBST XB=360.0,362.0,626.0,628.0,380,554.149719 SURF_ID='surf1' /
&OBST XB=360.0,362.0,627.0,629.0,380,554.149719 SURF_ID='surf1' /
&OBST XB=360.0,362.0,628.0,630.0,380,555.081055 SURF_ID='surf1' /
&OBST XB=360.0,362.0,629.0,631.0,380,555.081055 SURF_ID='surf1' /
&OBST XB=360.0,362.0,630.0,632.0,380,556.131226 SURF_ID='surf1' /
&OBST XB=360.0,362.0,631.0,633.0,380,556.131226 SURF_ID='surf1' /
&OBST XB=360.0,362.0,632.0,634.0,380,557.298218 SURF_ID='surf1' /
&OBST XB=360.0,362.0,633.0,635.0,380,557.298218 SURF_ID='surf1' /
&OBST XB=360.0,362.0,634.0,636.0,380,558.465332 SURF_ID='surf1' /
&OBST XB=360.0,362.0,635.0,637.0,380,558.465332 SURF_ID='surf1' /
&OBST XB=360.0,362.0,636.0,638.0,380,559.507263 SURF_ID='surf1' /
&OBST XB=360.0,362.0,637.0,639.0,380,559.507263 SURF_ID='surf1' /
&OBST XB=360.0,362.0,638.0,640.0,380,560.247437 SURF_ID='surf1' /
&OBST XB=360.0,362.0,639.0,641.0,380,560.247437 SURF_ID='surf1' /
&OBST XB=360.0,362.0,640.0,642.0,380,560.8112179999998 SURF_ID='surf1' /
&OBST XB=360.0,362.0,641.0,643.0,380,560.8112179999998 SURF_ID='surf1' /
&OBST XB=360.0,362.0,642.0,644.0,380,561.318848 SURF_ID='surf1' /
&OBST XB=360.0,362.0,643.0,645.0,380,561.318848 SURF_ID='surf1' /
&OBST XB=360.0,362.0,644.0,646.0,380,561.826477 SURF_ID='surf1' /
&OBST XB=360.0,362.0,645.0,647.0,380,561.826477 SURF_ID='surf1' /
&OBST XB=360.0,362.0,646.0,648.0,380,562.3905639999998 SURF_ID='surf1' /
&OBST XB=360.0,362.0,647.0,649.0,380,562.3905639999998 SURF_ID='surf1' /
&OBST XB=360.0,362.0,648.0,650.0,380,563.004395 SURF_ID='surf1' /
&OBST XB=360.0,362.0,649.0,651.0,380,563.004395 SURF_ID='surf1' /
&OBST XB=360.0,362.0,650.0,652.0,380,563.602905 SURF_ID='surf1' /
&OBST XB=360.0,362.0,651.0,653.0,380,563.602905 SURF_ID='surf1' /
&OBST XB=360.0,362.0,652.0,654.0,380,564.2032469999998 SURF_ID='surf1' /
&OBST XB=360.0,362.0,653.0,655.0,380,564.2032469999998 SURF_ID='surf1' /
&OBST XB=360.0,362.0,654.0,656.0,380,564.870361 SURF_ID='surf1' /
&OBST XB=360.0,362.0,655.0,657.0,380,564.870361 SURF_ID='surf1' /
&OBST XB=360.0,362.0,656.0,658.0,380,565.470642 SURF_ID='surf1' /
&OBST XB=360.0,362.0,657.0,659.0,380,565.470642 SURF_ID='surf1' /
&OBST XB=360.0,362.0,658.0,660.0,380,566.023193 SURF_ID='surf1' /
&OBST XB=360.0,362.0,659.0,661.0,380,566.023193 SURF_ID='surf1' /
&OBST XB=360.0,362.0,660.0,662.0,380,566.575684 SURF_ID='surf1' /
&OBST XB=360.0,362.0,661.0,663.0,380,566.575684 SURF_ID='surf1' /
&OBST XB=360.0,362.0,662.0,664.0,380,567.109375 SURF_ID='surf1' /
&OBST XB=360.0,362.0,663.0,665.0,380,567.109375 SURF_ID='surf1' /
&OBST XB=360.0,362.0,664.0,666.0,380,567.5899049999998 SURF_ID='surf1' /
&OBST XB=360.0,362.0,665.0,667.0,380,567.5899049999998 SURF_ID='surf1' /
&OBST XB=360.0,362.0,666.0,668.0,380,568.070496 SURF_ID='surf1' /
&OBST XB=360.0,362.0,667.0,669.0,380,568.070496 SURF_ID='surf1' /
&OBST XB=360.0,362.0,668.0,670.0,380,568.515198 SURF_ID='surf1' /
&OBST XB=360.0,362.0,669.0,671.0,380,568.515198 SURF_ID='surf1' /
&OBST XB=360.0,362.0,670.0,672.0,380,568.7987059999998 SURF_ID='surf1' /
&OBST XB=360.0,362.0,671.0,673.0,380,568.7987059999998 SURF_ID='surf1' /
&OBST XB=360.0,362.0,672.0,674.0,380,569.036743 SURF_ID='surf1' /
&OBST XB=360.0,362.0,673.0,675.0,380,569.036743 SURF_ID='surf1' /
&OBST XB=360.0,362.0,674.0,676.0,380,569.301331 SURF_ID='surf1' /
&OBST XB=360.0,362.0,675.0,677.0,380,569.301331 SURF_ID='surf1' /
&OBST XB=360.0,362.0,676.0,678.0,380,569.56604 SURF_ID='surf1' /
&OBST XB=360.0,362.0,677.0,679.0,380,569.56604 SURF_ID='surf1' /
&OBST XB=360.0,362.0,678.0,680.0,380,569.693909 SURF_ID='surf1' /
&OBST XB=360.0,362.0,679.0,681.0,380,569.693909 SURF_ID='surf1' /
&OBST XB=360.0,362.0,680.0,682.0,380,569.55188 SURF_ID='surf1' /
&OBST XB=360.0,362.0,681.0,683.0,380,569.55188 SURF_ID='surf1' /
&OBST XB=360.0,362.0,682.0,684.0,380,569.277039 SURF_ID='surf1' /
&OBST XB=360.0,362.0,683.0,685.0,380,569.277039 SURF_ID='surf1' /
&OBST XB=360.0,362.0,684.0,686.0,380,569.029663 SURF_ID='surf1' /
&OBST XB=360.0,362.0,685.0,687.0,380,569.029663 SURF_ID='surf1' /
&OBST XB=360.0,362.0,686.0,688.0,380,568.782104 SURF_ID='surf1' /
&OBST XB=360.0,362.0,687.0,689.0,380,568.782104 SURF_ID='surf1' /
&OBST XB=360.0,362.0,688.0,690.0,380,568.43335 SURF_ID='surf1' /
&OBST XB=360.0,362.0,689.0,691.0,380,568.43335 SURF_ID='surf1' /
&OBST XB=360.0,362.0,690.0,692.0,380,567.876709 SURF_ID='surf1' /
&OBST XB=360.0,362.0,691.0,693.0,380,567.876709 SURF_ID='surf1' /
&OBST XB=360.0,362.0,692.0,694.0,380,567.255066 SURF_ID='surf1' /
&OBST XB=360.0,362.0,693.0,695.0,380,567.255066 SURF_ID='surf1' /
&OBST XB=360.0,362.0,694.0,696.0,380,566.633789 SURF_ID='surf1' /
&OBST XB=360.0,362.0,695.0,697.0,380,566.633789 SURF_ID='surf1' /
&OBST XB=360.0,362.0,696.0,698.0,380,565.943359 SURF_ID='surf1' /
&OBST XB=360.0,362.0,697.0,699.0,380,565.943359 SURF_ID='surf1' /
&OBST XB=360.0,362.0,698.0,700.0,380,565.247925 SURF_ID='surf1' /
&OBST XB=360.0,362.0,699.0,701.0,380,565.247925 SURF_ID='surf1' /
&OBST XB=360.0,362.0,700.0,702.0,380,564.6094969999998 SURF_ID='surf1' /
&OBST XB=361.0,363.0,500.0,502.0,380,500.702454 SURF_ID='surf1' /
&OBST XB=361.0,363.0,501.0,503.0,380,500.702454 SURF_ID='surf1' /
&OBST XB=361.0,363.0,502.0,504.0,380,501.18521100000004 SURF_ID='surf1' /
&OBST XB=361.0,363.0,503.0,505.0,380,501.18521100000004 SURF_ID='surf1' /
&OBST XB=361.0,363.0,504.0,506.0,380,501.848755 SURF_ID='surf1' /
&OBST XB=361.0,363.0,505.0,507.0,380,501.848755 SURF_ID='surf1' /
&OBST XB=361.0,363.0,506.0,508.0,380,502.759766 SURF_ID='surf1' /
&OBST XB=361.0,363.0,507.0,509.0,380,502.759766 SURF_ID='surf1' /
&OBST XB=361.0,363.0,508.0,510.0,380,503.683716 SURF_ID='surf1' /
&OBST XB=361.0,363.0,509.0,511.0,380,503.683716 SURF_ID='surf1' /
&OBST XB=361.0,363.0,510.0,512.0,380,504.515167 SURF_ID='surf1' /
&OBST XB=361.0,363.0,511.0,513.0,380,504.515167 SURF_ID='surf1' /
&OBST XB=361.0,363.0,512.0,514.0,380,505.34661900000003 SURF_ID='surf1' /
&OBST XB=361.0,363.0,513.0,515.0,380,505.34661900000003 SURF_ID='surf1' /
&OBST XB=361.0,363.0,514.0,516.0,380,506.326721 SURF_ID='surf1' /
&OBST XB=361.0,363.0,515.0,517.0,380,506.326721 SURF_ID='surf1' /
&OBST XB=361.0,363.0,516.0,518.0,380,507.265808 SURF_ID='surf1' /
&OBST XB=361.0,363.0,517.0,519.0,380,507.265808 SURF_ID='surf1' /
&OBST XB=361.0,363.0,518.0,520.0,380,508.21313499999997 SURF_ID='surf1' /
&OBST XB=361.0,363.0,519.0,521.0,380,508.21313499999997 SURF_ID='surf1' /
&OBST XB=361.0,363.0,520.0,522.0,380,509.26586900000007 SURF_ID='surf1' /
&OBST XB=361.0,363.0,521.0,523.0,380,509.26586900000007 SURF_ID='surf1' /
&OBST XB=361.0,363.0,522.0,524.0,380,510.318604 SURF_ID='surf1' /
&OBST XB=361.0,363.0,523.0,525.0,380,510.318604 SURF_ID='surf1' /
&OBST XB=361.0,363.0,524.0,526.0,380,511.272217 SURF_ID='surf1' /
&OBST XB=361.0,363.0,525.0,527.0,380,511.272217 SURF_ID='surf1' /
&OBST XB=361.0,363.0,526.0,528.0,380,512.2351679999998 SURF_ID='surf1' /
&OBST XB=361.0,363.0,527.0,529.0,380,512.2351679999998 SURF_ID='surf1' /
&OBST XB=361.0,363.0,528.0,530.0,380,513.307312 SURF_ID='surf1' /
&OBST XB=361.0,363.0,529.0,531.0,380,513.307312 SURF_ID='surf1' /
&OBST XB=361.0,363.0,530.0,532.0,380,514.272583 SURF_ID='surf1' /
&OBST XB=361.0,363.0,531.0,533.0,380,514.272583 SURF_ID='surf1' /
&OBST XB=361.0,363.0,532.0,534.0,380,515.237976 SURF_ID='surf1' /
&OBST XB=361.0,363.0,533.0,535.0,380,515.237976 SURF_ID='surf1' /
&OBST XB=361.0,363.0,534.0,536.0,380,516.342712 SURF_ID='surf1' /
&OBST XB=361.0,363.0,535.0,537.0,380,516.342712 SURF_ID='surf1' /
&OBST XB=361.0,363.0,536.0,538.0,380,517.502808 SURF_ID='surf1' /
&OBST XB=361.0,363.0,537.0,539.0,380,517.502808 SURF_ID='surf1' /
&OBST XB=361.0,363.0,538.0,540.0,380,518.568176 SURF_ID='surf1' /
&OBST XB=361.0,363.0,539.0,541.0,380,518.568176 SURF_ID='surf1' /
&OBST XB=361.0,363.0,540.0,542.0,380,519.634277 SURF_ID='surf1' /
&OBST XB=361.0,363.0,541.0,543.0,380,519.634277 SURF_ID='surf1' /
&OBST XB=361.0,363.0,542.0,544.0,380,520.819031 SURF_ID='surf1' /
&OBST XB=361.0,363.0,543.0,545.0,380,520.819031 SURF_ID='surf1' /
&OBST XB=361.0,363.0,544.0,546.0,380,521.8476559999998 SURF_ID='surf1' /
&OBST XB=361.0,363.0,545.0,547.0,380,521.8476559999998 SURF_ID='surf1' /
&OBST XB=361.0,363.0,546.0,548.0,380,522.758545 SURF_ID='surf1' /
&OBST XB=361.0,363.0,547.0,549.0,380,522.758545 SURF_ID='surf1' /
&OBST XB=361.0,363.0,548.0,550.0,380,523.7069700000002 SURF_ID='surf1' /
&OBST XB=361.0,363.0,549.0,551.0,380,523.7069700000002 SURF_ID='surf1' /
&OBST XB=361.0,363.0,550.0,552.0,380,524.655396 SURF_ID='surf1' /
&OBST XB=361.0,363.0,551.0,553.0,380,524.655396 SURF_ID='surf1' /
&OBST XB=361.0,363.0,552.0,554.0,380,525.509399 SURF_ID='surf1' /
&OBST XB=361.0,363.0,553.0,555.0,380,525.509399 SURF_ID='surf1' /
&OBST XB=361.0,363.0,554.0,556.0,380,526.290039 SURF_ID='surf1' /
&OBST XB=361.0,363.0,555.0,557.0,380,526.290039 SURF_ID='surf1' /
&OBST XB=361.0,363.0,556.0,558.0,380,526.8867190000002 SURF_ID='surf1' /
&OBST XB=361.0,363.0,557.0,559.0,380,526.8867190000002 SURF_ID='surf1' /
&OBST XB=361.0,363.0,558.0,560.0,380,527.238647 SURF_ID='surf1' /
&OBST XB=361.0,363.0,559.0,561.0,380,527.238647 SURF_ID='surf1' /
&OBST XB=361.0,363.0,560.0,562.0,380,527.590332 SURF_ID='surf1' /
&OBST XB=361.0,363.0,561.0,563.0,380,527.590332 SURF_ID='surf1' /
&OBST XB=361.0,363.0,562.0,564.0,380,527.9812009999998 SURF_ID='surf1' /
&OBST XB=361.0,363.0,563.0,565.0,380,527.9812009999998 SURF_ID='surf1' /
&OBST XB=361.0,363.0,564.0,566.0,380,528.440796 SURF_ID='surf1' /
&OBST XB=361.0,363.0,565.0,567.0,380,528.440796 SURF_ID='surf1' /
&OBST XB=361.0,363.0,566.0,568.0,380,529.124084 SURF_ID='surf1' /
&OBST XB=361.0,363.0,567.0,569.0,380,529.124084 SURF_ID='surf1' /
&OBST XB=361.0,363.0,568.0,570.0,380,530.067444 SURF_ID='surf1' /
&OBST XB=361.0,363.0,569.0,571.0,380,530.067444 SURF_ID='surf1' /
&OBST XB=361.0,363.0,570.0,572.0,380,531.1151120000002 SURF_ID='surf1' /
&OBST XB=361.0,363.0,571.0,573.0,380,531.1151120000002 SURF_ID='surf1' /
&OBST XB=361.0,363.0,572.0,574.0,380,532.057861 SURF_ID='surf1' /
&OBST XB=361.0,363.0,573.0,575.0,380,532.057861 SURF_ID='surf1' /
&OBST XB=361.0,363.0,574.0,576.0,380,533.001221 SURF_ID='surf1' /
&OBST XB=361.0,363.0,575.0,577.0,380,533.001221 SURF_ID='surf1' /
&OBST XB=361.0,363.0,576.0,578.0,380,533.9530030000002 SURF_ID='surf1' /
&OBST XB=361.0,363.0,577.0,579.0,380,533.9530030000002 SURF_ID='surf1' /
&OBST XB=361.0,363.0,578.0,580.0,380,534.803589 SURF_ID='surf1' /
&OBST XB=361.0,363.0,579.0,581.0,380,534.803589 SURF_ID='surf1' /
&OBST XB=361.0,363.0,580.0,582.0,380,535.56488 SURF_ID='surf1' /
&OBST XB=361.0,363.0,581.0,583.0,380,535.56488 SURF_ID='surf1' /
&OBST XB=361.0,363.0,582.0,584.0,380,536.325562 SURF_ID='surf1' /
&OBST XB=361.0,363.0,583.0,585.0,380,536.325562 SURF_ID='surf1' /
&OBST XB=361.0,363.0,584.0,586.0,380,537.171021 SURF_ID='surf1' /
&OBST XB=361.0,363.0,585.0,587.0,380,537.171021 SURF_ID='surf1' /
&OBST XB=361.0,363.0,586.0,588.0,380,537.895874 SURF_ID='surf1' /
&OBST XB=361.0,363.0,587.0,589.0,380,537.895874 SURF_ID='surf1' /
&OBST XB=361.0,363.0,588.0,590.0,380,538.568604 SURF_ID='surf1' /
&OBST XB=361.0,363.0,589.0,591.0,380,538.568604 SURF_ID='surf1' /
&OBST XB=361.0,363.0,590.0,592.0,380,539.310425 SURF_ID='surf1' /
&OBST XB=361.0,363.0,591.0,593.0,380,539.310425 SURF_ID='surf1' /
&OBST XB=361.0,363.0,592.0,594.0,380,540.051697 SURF_ID='surf1' /
&OBST XB=361.0,363.0,593.0,595.0,380,540.051697 SURF_ID='surf1' /
&OBST XB=361.0,363.0,594.0,596.0,380,540.71875 SURF_ID='surf1' /
&OBST XB=361.0,363.0,595.0,597.0,380,540.71875 SURF_ID='surf1' /
&OBST XB=361.0,363.0,596.0,598.0,380,541.435303 SURF_ID='surf1' /
&OBST XB=361.0,363.0,597.0,599.0,380,541.435303 SURF_ID='surf1' /
&OBST XB=361.0,363.0,598.0,600.0,380,542.302124 SURF_ID='surf1' /
&OBST XB=361.0,363.0,599.0,601.0,380,542.302124 SURF_ID='surf1' /
&OBST XB=361.0,363.0,600.0,602.0,380,543.106567 SURF_ID='surf1' /
&OBST XB=361.0,363.0,601.0,603.0,380,543.106567 SURF_ID='surf1' /
&OBST XB=361.0,363.0,602.0,604.0,380,543.910889 SURF_ID='surf1' /
&OBST XB=361.0,363.0,603.0,605.0,380,543.910889 SURF_ID='surf1' /
&OBST XB=361.0,363.0,604.0,606.0,380,544.804321 SURF_ID='surf1' /
&OBST XB=361.0,363.0,605.0,607.0,380,544.804321 SURF_ID='surf1' /
&OBST XB=361.0,363.0,606.0,608.0,380,545.713745 SURF_ID='surf1' /
&OBST XB=361.0,363.0,607.0,609.0,380,545.713745 SURF_ID='surf1' /
&OBST XB=361.0,363.0,608.0,610.0,380,546.556091 SURF_ID='surf1' /
&OBST XB=361.0,363.0,609.0,611.0,380,546.556091 SURF_ID='surf1' /
&OBST XB=361.0,363.0,610.0,612.0,380,547.409607 SURF_ID='surf1' /
&OBST XB=361.0,363.0,611.0,613.0,380,547.409607 SURF_ID='surf1' /
&OBST XB=361.0,363.0,612.0,614.0,380,548.3580929999998 SURF_ID='surf1' /
&OBST XB=361.0,363.0,613.0,615.0,380,548.3580929999998 SURF_ID='surf1' /
&OBST XB=361.0,363.0,614.0,616.0,380,549.21167 SURF_ID='surf1' /
&OBST XB=361.0,363.0,615.0,617.0,380,549.21167 SURF_ID='surf1' /
&OBST XB=361.0,363.0,616.0,618.0,380,550.0460820000002 SURF_ID='surf1' /
&OBST XB=361.0,363.0,617.0,619.0,380,550.0460820000002 SURF_ID='surf1' /
&OBST XB=361.0,363.0,618.0,620.0,380,550.920166 SURF_ID='surf1' /
&OBST XB=361.0,363.0,619.0,621.0,380,550.920166 SURF_ID='surf1' /
&OBST XB=361.0,363.0,620.0,622.0,380,551.758057 SURF_ID='surf1' /
&OBST XB=361.0,363.0,621.0,623.0,380,551.758057 SURF_ID='surf1' /
&OBST XB=361.0,363.0,622.0,624.0,380,552.512085 SURF_ID='surf1' /
&OBST XB=361.0,363.0,623.0,625.0,380,552.512085 SURF_ID='surf1' /
&OBST XB=361.0,363.0,624.0,626.0,380,553.266113 SURF_ID='surf1' /
&OBST XB=361.0,363.0,625.0,627.0,380,553.266113 SURF_ID='surf1' /
&OBST XB=361.0,363.0,626.0,628.0,380,554.149719 SURF_ID='surf1' /
&OBST XB=361.0,363.0,627.0,629.0,380,554.149719 SURF_ID='surf1' /
&OBST XB=361.0,363.0,628.0,630.0,380,555.081055 SURF_ID='surf1' /
&OBST XB=361.0,363.0,629.0,631.0,380,555.081055 SURF_ID='surf1' /
&OBST XB=361.0,363.0,630.0,632.0,380,556.131226 SURF_ID='surf1' /
&OBST XB=361.0,363.0,631.0,633.0,380,556.131226 SURF_ID='surf1' /
&OBST XB=361.0,363.0,632.0,634.0,380,557.298218 SURF_ID='surf1' /
&OBST XB=361.0,363.0,633.0,635.0,380,557.298218 SURF_ID='surf1' /
&OBST XB=361.0,363.0,634.0,636.0,380,558.465332 SURF_ID='surf1' /
&OBST XB=361.0,363.0,635.0,637.0,380,558.465332 SURF_ID='surf1' /
&OBST XB=361.0,363.0,636.0,638.0,380,559.507263 SURF_ID='surf1' /
&OBST XB=361.0,363.0,637.0,639.0,380,559.507263 SURF_ID='surf1' /
&OBST XB=361.0,363.0,638.0,640.0,380,560.247437 SURF_ID='surf1' /
&OBST XB=361.0,363.0,639.0,641.0,380,560.247437 SURF_ID='surf1' /
&OBST XB=361.0,363.0,640.0,642.0,380,560.8112179999998 SURF_ID='surf1' /
&OBST XB=361.0,363.0,641.0,643.0,380,560.8112179999998 SURF_ID='surf1' /
&OBST XB=361.0,363.0,642.0,644.0,380,561.318848 SURF_ID='surf1' /
&OBST XB=361.0,363.0,643.0,645.0,380,561.318848 SURF_ID='surf1' /
&OBST XB=361.0,363.0,644.0,646.0,380,561.826477 SURF_ID='surf1' /
&OBST XB=361.0,363.0,645.0,647.0,380,561.826477 SURF_ID='surf1' /
&OBST XB=361.0,363.0,646.0,648.0,380,562.3905639999998 SURF_ID='surf1' /
&OBST XB=361.0,363.0,647.0,649.0,380,562.3905639999998 SURF_ID='surf1' /
&OBST XB=361.0,363.0,648.0,650.0,380,563.004395 SURF_ID='surf1' /
&OBST XB=361.0,363.0,649.0,651.0,380,563.004395 SURF_ID='surf1' /
&OBST XB=361.0,363.0,650.0,652.0,380,563.602905 SURF_ID='surf1' /
&OBST XB=361.0,363.0,651.0,653.0,380,563.602905 SURF_ID='surf1' /
&OBST XB=361.0,363.0,652.0,654.0,380,564.2032469999998 SURF_ID='surf1' /
&OBST XB=361.0,363.0,653.0,655.0,380,564.2032469999998 SURF_ID='surf1' /
&OBST XB=361.0,363.0,654.0,656.0,380,564.870361 SURF_ID='surf1' /
&OBST XB=361.0,363.0,655.0,657.0,380,564.870361 SURF_ID='surf1' /
&OBST XB=361.0,363.0,656.0,658.0,380,565.470642 SURF_ID='surf1' /
&OBST XB=361.0,363.0,657.0,659.0,380,565.470642 SURF_ID='surf1' /
&OBST XB=361.0,363.0,658.0,660.0,380,566.023193 SURF_ID='surf1' /
&OBST XB=361.0,363.0,659.0,661.0,380,566.023193 SURF_ID='surf1' /
&OBST XB=361.0,363.0,660.0,662.0,380,566.575684 SURF_ID='surf1' /
&OBST XB=361.0,363.0,661.0,663.0,380,566.575684 SURF_ID='surf1' /
&OBST XB=361.0,363.0,662.0,664.0,380,567.109375 SURF_ID='surf1' /
&OBST XB=361.0,363.0,663.0,665.0,380,567.109375 SURF_ID='surf1' /
&OBST XB=361.0,363.0,664.0,666.0,380,567.5899049999998 SURF_ID='surf1' /
&OBST XB=361.0,363.0,665.0,667.0,380,567.5899049999998 SURF_ID='surf1' /
&OBST XB=361.0,363.0,666.0,668.0,380,568.070496 SURF_ID='surf1' /
&OBST XB=361.0,363.0,667.0,669.0,380,568.070496 SURF_ID='surf1' /
&OBST XB=361.0,363.0,668.0,670.0,380,568.515198 SURF_ID='surf1' /
&OBST XB=361.0,363.0,669.0,671.0,380,568.515198 SURF_ID='surf1' /
&OBST XB=361.0,363.0,670.0,672.0,380,568.7987059999998 SURF_ID='surf1' /
&OBST XB=361.0,363.0,671.0,673.0,380,568.7987059999998 SURF_ID='surf1' /
&OBST XB=361.0,363.0,672.0,674.0,380,569.036743 SURF_ID='surf1' /
&OBST XB=361.0,363.0,673.0,675.0,380,569.036743 SURF_ID='surf1' /
&OBST XB=361.0,363.0,674.0,676.0,380,569.301331 SURF_ID='surf1' /
&OBST XB=361.0,363.0,675.0,677.0,380,569.301331 SURF_ID='surf1' /
&OBST XB=361.0,363.0,676.0,678.0,380,569.56604 SURF_ID='surf1' /
&OBST XB=361.0,363.0,677.0,679.0,380,569.56604 SURF_ID='surf1' /
&OBST XB=361.0,363.0,678.0,680.0,380,569.693909 SURF_ID='surf1' /
&OBST XB=361.0,363.0,679.0,681.0,380,569.693909 SURF_ID='surf1' /
&OBST XB=361.0,363.0,680.0,682.0,380,569.55188 SURF_ID='surf1' /
&OBST XB=361.0,363.0,681.0,683.0,380,569.55188 SURF_ID='surf1' /
&OBST XB=361.0,363.0,682.0,684.0,380,569.277039 SURF_ID='surf1' /
&OBST XB=361.0,363.0,683.0,685.0,380,569.277039 SURF_ID='surf1' /
&OBST XB=361.0,363.0,684.0,686.0,380,569.029663 SURF_ID='surf1' /
&OBST XB=361.0,363.0,685.0,687.0,380,569.029663 SURF_ID='surf1' /
&OBST XB=361.0,363.0,686.0,688.0,380,568.782104 SURF_ID='surf1' /
&OBST XB=361.0,363.0,687.0,689.0,380,568.782104 SURF_ID='surf1' /
&OBST XB=361.0,363.0,688.0,690.0,380,568.43335 SURF_ID='surf1' /
&OBST XB=361.0,363.0,689.0,691.0,380,568.43335 SURF_ID='surf1' /
&OBST XB=361.0,363.0,690.0,692.0,380,567.876709 SURF_ID='surf1' /
&OBST XB=361.0,363.0,691.0,693.0,380,567.876709 SURF_ID='surf1' /
&OBST XB=361.0,363.0,692.0,694.0,380,567.255066 SURF_ID='surf1' /
&OBST XB=361.0,363.0,693.0,695.0,380,567.255066 SURF_ID='surf1' /
&OBST XB=361.0,363.0,694.0,696.0,380,566.633789 SURF_ID='surf1' /
&OBST XB=361.0,363.0,695.0,697.0,380,566.633789 SURF_ID='surf1' /
&OBST XB=361.0,363.0,696.0,698.0,380,565.943359 SURF_ID='surf1' /
&OBST XB=361.0,363.0,697.0,699.0,380,565.943359 SURF_ID='surf1' /
&OBST XB=361.0,363.0,698.0,700.0,380,565.247925 SURF_ID='surf1' /
&OBST XB=361.0,363.0,699.0,701.0,380,565.247925 SURF_ID='surf1' /