&HEAD CHID='Region8', TITLE='Simulation of Chimney Tops fire' /

&MESH IJK=50,50,30, XB=400,500.0,480,580.0,380,440.0, MULT_ID='mesh' / 
&MULT ID='mesh', DX=100.0, DY=100.0, DZ=60.0, I_LOWER=0, I_UPPER=1, J_LOWER=0, J_UPPER=1, K_UPPER=3 /  

&MISC TMPA=30., TERRAIN_CASE=.TRUE., TERRAIN_IMAGE='Region8.png', VERBOSE=.TRUE., RESTART=.FALSE., PROJECTION=.TRUE.  /
&TIME T_BEGIN = 360.0, T_END = 420.0 / 

&DUMP NFRAMES=120, DT_PART=100., CFL_FILE=.TRUE., DT_PL3D=60.0 /  
&WIND DIRECTION=135., SPEED=5., SPONGE_CELLS=0, STRATIFICATION=.FALSE. /

&SLCF XB=400,600,480,680,380,620, QUANTITY='HRRPUV', CELL_CENTERED=.TRUE. /  

&CATF OTHER_FILES='../Region7/Region7.ini' / 


&RAMP ID='fire', T= 360, F=1. /
&RAMP ID='fire', T= 365.0, F=1. /
&RAMP ID='fire', T= 370.0, F=0. /
&VENT MB='XMIN', SURF_ID='OPEN' /  
&VENT MB='XMAX', SURF_ID='OPEN' /  
&VENT MB='YMIN', SURF_ID='OPEN' /  
&VENT MB='YMAX', SURF_ID='OPEN' /  
&VENT MB='ZMAX', SURF_ID='OPEN' /  

&REAC FUEL='CELLULOSE', C=6, H=10, O=5, SOOT_YIELD=0.005 / 

&SPEC ID='WATER VAPOR' / 

&SURF ID                        = 'grass' 
      MATL_ID(1,1:2)            = 'GENERIC VEGETATION','MOISTURE'
      MATL_MASS_FRACTION(1,1:2) = 0.937,0.063
      THICKNESS                 = 0.0002
      LENGTH                    = 0.21
      HEAT_TRANSFER_COEFFICIENT = 30.
      GEOMETRY                  = 'CYLINDRICAL' /

&SURF ID                        = 'needles' 
      MATL_ID(1,1:2)            = 'GENERIC VEGETATION','MOISTURE'
      MATL_MASS_FRACTION(1,1:2) = 0.95,0.05
      THICKNESS                 = 0.02
      LENGTH                    = 0.21
      HEAT_TRANSFER_COEFFICIENT = 30.
      GEOMETRY                  = 'CYLINDRICAL' /

&MATL ID = 'GENERIC VEGETATION' 
      DENSITY = 500.
      CONDUCTIVITY = 0.1
      SPECIFIC_HEAT= 1.5
      REFERENCE_TEMPERATURE = 200
      PYROLYSIS_RANGE = 30.
      NU_MATL = 0.2
      NU_SPEC = 0.8 
      SPEC_ID = 'CELLULOSE'
      HEAT_OF_COMBUSTION = 15600.
      HEAT_OF_REACTION = 418.
      MATL_ID  = 'CHAR' /

&MATL ID = 'MOISTURE' 
      DENSITY = 1000.
      CONDUCTIVITY = 0.1
      SPECIFIC_HEAT= 4.184
      REFERENCE_TEMPERATURE = 100.
      PYROLYSIS_RANGE = 10.
      NU_SPEC = 1.0 
      SPEC_ID = 'WATER VAPOR'
      HEAT_OF_REACTION = 2500./

&MATL ID = 'CHAR'
      DENSITY  = 100.
      CONDUCTIVITY = 0.1 
      SPECIFIC_HEAT = 1.0 / 

&MATL ID='DIRT'
      CONDUCTIVITY = 0.25
      SPECIFIC_HEAT = 2.
     DENSITY = 1300. /

&PART ID='foliage', DRAG_COEFFICIENT=1.0, SURF_ID='needles', SAMPLING_FACTOR=5,
      QUANTITIES='PARTICLE TEMPERATURE','PARTICLE MASS','PARTICLE DIAMETER', STATIC=.TRUE., COLOR='GREEN' / 

&PART ID='grass', DRAG_COEFFICIENT=1.0, SURF_ID='grass', SAMPLING_FACTOR=958,
      QUANTITIES='PARTICLE TEMPERATURE','PARTICLE MASS','PARTICLE DIAMETER', STATIC=.TRUE., COLOR='BROWN' /

&SURF ID = 'surf1', RGB = 122,117,48, MATL_ID='DIRT', THICKNESS=0.2, PART_ID='grass', PARTICLE_SURFACE_DENSITY=1.0 / 
&SURF ID = 'surf2', RGB = 0,100,0, MATL_ID='DIRT', THICKNESS=0.2 / 

&OBST XB=400.0,402.0,480.0,482.0,380,506.64407300000005 SURF_ID='surf1' /
&OBST XB=400.0,402.0,481.0,483.0,380,506.64407300000005 SURF_ID='surf1' /
&OBST XB=400.0,402.0,482.0,484.0,380,507.36477699999995 SURF_ID='surf1' /
&OBST XB=400.0,402.0,483.0,485.0,380,507.36477699999995 SURF_ID='surf1' /
&OBST XB=400.0,402.0,484.0,486.0,380,508.01062 SURF_ID='surf1' /
&OBST XB=400.0,402.0,485.0,487.0,380,508.01062 SURF_ID='surf1' /
&OBST XB=400.0,402.0,486.0,488.0,380,508.681763 SURF_ID='surf1' /
&OBST XB=400.0,402.0,487.0,489.0,380,508.681763 SURF_ID='surf1' /
&OBST XB=400.0,402.0,488.0,490.0,380,509.28576699999996 SURF_ID='surf1' /
&OBST XB=400.0,402.0,489.0,491.0,380,509.28576699999996 SURF_ID='surf1' /
&OBST XB=400.0,402.0,490.0,492.0,380,509.889709 SURF_ID='surf1' /
&OBST XB=400.0,402.0,491.0,493.0,380,509.889709 SURF_ID='surf1' /
&OBST XB=400.0,402.0,492.0,494.0,380,510.545898 SURF_ID='surf1' /
&OBST XB=400.0,402.0,493.0,495.0,380,510.545898 SURF_ID='surf1' /
&OBST XB=400.0,402.0,494.0,496.0,380,511.12524400000007 SURF_ID='surf1' /
&OBST XB=400.0,402.0,495.0,497.0,380,511.12524400000007 SURF_ID='surf1' /
&OBST XB=400.0,402.0,496.0,498.0,380,511.59082 SURF_ID='surf1' /
&OBST XB=400.0,402.0,497.0,499.0,380,511.59082 SURF_ID='surf1' /
&OBST XB=400.0,402.0,498.0,500.0,380,512.056458 SURF_ID='surf1' /
&OBST XB=400.0,402.0,499.0,501.0,380,512.056458 SURF_ID='surf1' /
&OBST XB=400.0,402.0,500.0,502.0,380,512.573853 SURF_ID='surf1' /
&OBST XB=400.0,402.0,501.0,503.0,380,512.573853 SURF_ID='surf1' /
&OBST XB=400.0,402.0,502.0,504.0,380,513.03949 SURF_ID='surf1' /
&OBST XB=400.0,402.0,503.0,505.0,380,513.03949 SURF_ID='surf1' /
&OBST XB=400.0,402.0,504.0,506.0,380,513.424683 SURF_ID='surf1' /
&OBST XB=400.0,402.0,505.0,507.0,380,513.424683 SURF_ID='surf1' /
&OBST XB=400.0,402.0,506.0,508.0,380,513.775879 SURF_ID='surf1' /
&OBST XB=400.0,402.0,507.0,509.0,380,513.775879 SURF_ID='surf1' /
&OBST XB=400.0,402.0,508.0,510.0,380,514.1218259999998 SURF_ID='surf1' /
&OBST XB=400.0,402.0,509.0,511.0,380,514.1218259999998 SURF_ID='surf1' /
&OBST XB=400.0,402.0,510.0,512.0,380,514.433167 SURF_ID='surf1' /
&OBST XB=400.0,402.0,511.0,513.0,380,514.433167 SURF_ID='surf1' /
&OBST XB=400.0,402.0,512.0,514.0,380,514.744507 SURF_ID='surf1' /
&OBST XB=400.0,402.0,513.0,515.0,380,514.744507 SURF_ID='surf1' /
&OBST XB=400.0,402.0,514.0,516.0,380,515.083374 SURF_ID='surf1' /
&OBST XB=400.0,402.0,515.0,517.0,380,515.083374 SURF_ID='surf1' /
&OBST XB=400.0,402.0,516.0,518.0,380,515.381165 SURF_ID='surf1' /
&OBST XB=400.0,402.0,517.0,519.0,380,515.381165 SURF_ID='surf1' /
&OBST XB=400.0,402.0,518.0,520.0,380,515.678284 SURF_ID='surf1' /
&OBST XB=400.0,402.0,519.0,521.0,380,515.678284 SURF_ID='surf1' /
&OBST XB=400.0,402.0,520.0,522.0,380,516.008484 SURF_ID='surf1' /
&OBST XB=400.0,402.0,521.0,523.0,380,516.008484 SURF_ID='surf1' /
&OBST XB=400.0,402.0,522.0,524.0,380,516.338684 SURF_ID='surf1' /
&OBST XB=400.0,402.0,523.0,525.0,380,516.338684 SURF_ID='surf1' /
&OBST XB=400.0,402.0,524.0,526.0,380,516.7843019999998 SURF_ID='surf1' /
&OBST XB=400.0,402.0,525.0,527.0,380,516.7843019999998 SURF_ID='surf1' /
&OBST XB=400.0,402.0,526.0,528.0,380,517.466309 SURF_ID='surf1' /
&OBST XB=400.0,402.0,527.0,529.0,380,517.466309 SURF_ID='surf1' /
&OBST XB=400.0,402.0,528.0,530.0,380,518.269836 SURF_ID='surf1' /
&OBST XB=400.0,402.0,529.0,531.0,380,518.269836 SURF_ID='surf1' /
&OBST XB=400.0,402.0,530.0,532.0,380,518.993347 SURF_ID='surf1' /
&OBST XB=400.0,402.0,531.0,533.0,380,518.993347 SURF_ID='surf1' /
&OBST XB=400.0,402.0,532.0,534.0,380,519.7167969999998 SURF_ID='surf1' /
&OBST XB=400.0,402.0,533.0,535.0,380,519.7167969999998 SURF_ID='surf1' /
&OBST XB=400.0,402.0,534.0,536.0,380,520.687866 SURF_ID='surf1' /
&OBST XB=400.0,402.0,535.0,537.0,380,520.687866 SURF_ID='surf1' /
&OBST XB=400.0,402.0,536.0,538.0,380,521.9501339999998 SURF_ID='surf1' /
&OBST XB=400.0,402.0,537.0,539.0,380,521.9501339999998 SURF_ID='surf1' /
&OBST XB=400.0,402.0,538.0,540.0,380,523.1982419999998 SURF_ID='surf1' /
&OBST XB=400.0,402.0,539.0,541.0,380,523.1982419999998 SURF_ID='surf1' /
&OBST XB=400.0,402.0,540.0,542.0,380,524.447266 SURF_ID='surf1' /
&OBST XB=400.0,402.0,541.0,543.0,380,524.447266 SURF_ID='surf1' /
&OBST XB=400.0,402.0,542.0,544.0,380,525.835205 SURF_ID='surf1' /
&OBST XB=400.0,402.0,543.0,545.0,380,525.835205 SURF_ID='surf1' /
&OBST XB=400.0,402.0,544.0,546.0,380,526.911865 SURF_ID='surf1' /
&OBST XB=400.0,402.0,545.0,547.0,380,526.911865 SURF_ID='surf1' /
&OBST XB=400.0,402.0,546.0,548.0,380,527.445801 SURF_ID='surf1' /
&OBST XB=400.0,402.0,547.0,549.0,380,527.445801 SURF_ID='surf1' /
&OBST XB=400.0,402.0,548.0,550.0,380,527.748108 SURF_ID='surf1' /
&OBST XB=400.0,402.0,549.0,551.0,380,527.748108 SURF_ID='surf1' /
&OBST XB=400.0,402.0,550.0,552.0,380,528.050476 SURF_ID='surf1' /
&OBST XB=400.0,402.0,551.0,553.0,380,528.050476 SURF_ID='surf1' /
&OBST XB=400.0,402.0,552.0,554.0,380,528.322632 SURF_ID='surf1' /
&OBST XB=400.0,402.0,553.0,555.0,380,528.322632 SURF_ID='surf1' /
&OBST XB=400.0,402.0,554.0,556.0,380,528.728943 SURF_ID='surf1' /
&OBST XB=400.0,402.0,555.0,557.0,380,528.728943 SURF_ID='surf1' /
&OBST XB=400.0,402.0,556.0,558.0,380,529.675354 SURF_ID='surf1' /
&OBST XB=400.0,402.0,557.0,559.0,380,529.675354 SURF_ID='surf1' /
&OBST XB=400.0,402.0,558.0,560.0,380,530.8651120000002 SURF_ID='surf1' /
&OBST XB=400.0,402.0,559.0,561.0,380,530.8651120000002 SURF_ID='surf1' /
&OBST XB=400.0,402.0,560.0,562.0,380,532.054077 SURF_ID='surf1' /
&OBST XB=400.0,402.0,561.0,563.0,380,532.054077 SURF_ID='surf1' /
&OBST XB=400.0,402.0,562.0,564.0,380,533.375427 SURF_ID='surf1' /
&OBST XB=400.0,402.0,563.0,565.0,380,533.375427 SURF_ID='surf1' /
&OBST XB=400.0,402.0,564.0,566.0,380,534.682861 SURF_ID='surf1' /
&OBST XB=400.0,402.0,565.0,567.0,380,534.682861 SURF_ID='surf1' /
&OBST XB=400.0,402.0,566.0,568.0,380,535.801636 SURF_ID='surf1' /
&OBST XB=400.0,402.0,567.0,569.0,380,535.801636 SURF_ID='surf1' /
&OBST XB=400.0,402.0,568.0,570.0,380,536.864685 SURF_ID='surf1' /
&OBST XB=400.0,402.0,569.0,571.0,380,536.864685 SURF_ID='surf1' /
&OBST XB=400.0,402.0,570.0,572.0,380,538.045288 SURF_ID='surf1' /
&OBST XB=400.0,402.0,571.0,573.0,380,538.045288 SURF_ID='surf1' /
&OBST XB=400.0,402.0,572.0,574.0,380,539.107605 SURF_ID='surf1' /
&OBST XB=400.0,402.0,573.0,575.0,380,539.107605 SURF_ID='surf1' /
&OBST XB=400.0,402.0,574.0,576.0,380,540.170654 SURF_ID='surf1' /
&OBST XB=400.0,402.0,575.0,577.0,380,540.170654 SURF_ID='surf1' /
&OBST XB=400.0,402.0,576.0,578.0,380,541.3117679999998 SURF_ID='surf1' /
&OBST XB=400.0,402.0,577.0,579.0,380,541.3117679999998 SURF_ID='surf1' /
&OBST XB=400.0,402.0,578.0,580.0,380,542.410889 SURF_ID='surf1' /
&OBST XB=400.0,402.0,579.0,581.0,380,542.410889 SURF_ID='surf1' /
&OBST XB=400.0,402.0,580.0,582.0,380,543.398071 SURF_ID='surf1' /
&OBST XB=400.0,402.0,581.0,583.0,380,543.398071 SURF_ID='surf1' /
&OBST XB=400.0,402.0,582.0,584.0,380,544.3847049999998 SURF_ID='surf1' /
&OBST XB=400.0,402.0,583.0,585.0,380,544.3847049999998 SURF_ID='surf1' /
&OBST XB=400.0,402.0,584.0,586.0,380,545.4812009999998 SURF_ID='surf1' /
&OBST XB=400.0,402.0,585.0,587.0,380,545.4812009999998 SURF_ID='surf1' /
&OBST XB=400.0,402.0,586.0,588.0,380,546.530334 SURF_ID='surf1' /
&OBST XB=400.0,402.0,587.0,589.0,380,546.530334 SURF_ID='surf1' /
&OBST XB=400.0,402.0,588.0,590.0,380,547.6680299999998 SURF_ID='surf1' /
&OBST XB=400.0,402.0,589.0,591.0,380,547.6680299999998 SURF_ID='surf1' /
&OBST XB=400.0,402.0,590.0,592.0,380,548.942322 SURF_ID='surf1' /
&OBST XB=400.0,402.0,591.0,593.0,380,548.942322 SURF_ID='surf1' /
&OBST XB=400.0,402.0,592.0,594.0,380,550.2156980000002 SURF_ID='surf1' /
&OBST XB=400.0,402.0,593.0,595.0,380,550.2156980000002 SURF_ID='surf1' /
&OBST XB=400.0,402.0,594.0,596.0,380,551.361633 SURF_ID='surf1' /
&OBST XB=400.0,402.0,595.0,597.0,380,551.361633 SURF_ID='surf1' /
&OBST XB=400.0,402.0,596.0,598.0,380,552.466553 SURF_ID='surf1' /
&OBST XB=400.0,402.0,597.0,599.0,380,552.466553 SURF_ID='surf1' /
&OBST XB=400.0,402.0,598.0,600.0,380,553.634155 SURF_ID='surf1' /
&OBST XB=400.0,402.0,599.0,601.0,380,553.634155 SURF_ID='surf1' /
&OBST XB=400.0,402.0,600.0,602.0,380,554.664185 SURF_ID='surf1' /
&OBST XB=400.0,402.0,601.0,603.0,380,554.664185 SURF_ID='surf1' /
&OBST XB=400.0,402.0,602.0,604.0,380,555.694214 SURF_ID='surf1' /
&OBST XB=400.0,402.0,603.0,605.0,380,555.694214 SURF_ID='surf1' /
&OBST XB=400.0,402.0,604.0,606.0,380,556.838135 SURF_ID='surf1' /
&OBST XB=400.0,402.0,605.0,607.0,380,556.838135 SURF_ID='surf1' /
&OBST XB=400.0,402.0,606.0,608.0,380,557.842163 SURF_ID='surf1' /
&OBST XB=400.0,402.0,607.0,609.0,380,557.842163 SURF_ID='surf1' /
&OBST XB=400.0,402.0,608.0,610.0,380,558.542603 SURF_ID='surf1' /
&OBST XB=400.0,402.0,609.0,611.0,380,558.542603 SURF_ID='surf1' /
&OBST XB=400.0,402.0,610.0,612.0,380,559.145691 SURF_ID='surf1' /
&OBST XB=400.0,402.0,611.0,613.0,380,559.145691 SURF_ID='surf1' /
&OBST XB=400.0,402.0,612.0,614.0,380,559.81604 SURF_ID='surf1' /
&OBST XB=400.0,402.0,613.0,615.0,380,559.81604 SURF_ID='surf1' /
&OBST XB=400.0,402.0,614.0,616.0,380,560.419189 SURF_ID='surf1' /
&OBST XB=400.0,402.0,615.0,617.0,380,560.419189 SURF_ID='surf1' /
&OBST XB=400.0,402.0,616.0,618.0,380,561.063538 SURF_ID='surf1' /
&OBST XB=400.0,402.0,617.0,619.0,380,561.063538 SURF_ID='surf1' /
&OBST XB=400.0,402.0,618.0,620.0,380,561.898926 SURF_ID='surf1' /
&OBST XB=400.0,402.0,619.0,621.0,380,561.898926 SURF_ID='surf1' /
&OBST XB=400.0,402.0,620.0,622.0,380,562.817139 SURF_ID='surf1' /
&OBST XB=400.0,402.0,621.0,623.0,380,562.817139 SURF_ID='surf1' /
&OBST XB=400.0,402.0,622.0,624.0,380,563.643433 SURF_ID='surf1' /
&OBST XB=400.0,402.0,623.0,625.0,380,563.643433 SURF_ID='surf1' /
&OBST XB=400.0,402.0,624.0,626.0,380,564.4697269999998 SURF_ID='surf1' /
&OBST XB=400.0,402.0,625.0,627.0,380,564.4697269999998 SURF_ID='surf1' /
&OBST XB=400.0,402.0,626.0,628.0,380,565.315063 SURF_ID='surf1' /
&OBST XB=400.0,402.0,627.0,629.0,380,565.315063 SURF_ID='surf1' /
&OBST XB=400.0,402.0,628.0,630.0,380,565.862305 SURF_ID='surf1' /
&OBST XB=400.0,402.0,629.0,631.0,380,565.862305 SURF_ID='surf1' /
&OBST XB=400.0,402.0,630.0,632.0,380,566.224792 SURF_ID='surf1' /
&OBST XB=400.0,402.0,631.0,633.0,380,566.224792 SURF_ID='surf1' /
&OBST XB=400.0,402.0,632.0,634.0,380,566.627563 SURF_ID='surf1' /
&OBST XB=400.0,402.0,633.0,635.0,380,566.627563 SURF_ID='surf1' /
&OBST XB=400.0,402.0,634.0,636.0,380,567.030396 SURF_ID='surf1' /
&OBST XB=400.0,402.0,635.0,637.0,380,567.030396 SURF_ID='surf1' /
&OBST XB=400.0,402.0,636.0,638.0,380,567.3924559999998 SURF_ID='surf1' /
&OBST XB=400.0,402.0,637.0,639.0,380,567.3924559999998 SURF_ID='surf1' /
&OBST XB=400.0,402.0,638.0,640.0,380,567.741028 SURF_ID='surf1' /
&OBST XB=400.0,402.0,639.0,641.0,380,567.741028 SURF_ID='surf1' /
&OBST XB=400.0,402.0,640.0,642.0,380,568.116821 SURF_ID='surf1' /
&OBST XB=400.0,402.0,641.0,643.0,380,568.116821 SURF_ID='surf1' /
&OBST XB=400.0,402.0,642.0,644.0,380,568.4552 SURF_ID='surf1' /
&OBST XB=400.0,402.0,643.0,645.0,380,568.4552 SURF_ID='surf1' /
&OBST XB=400.0,402.0,644.0,646.0,380,568.793579 SURF_ID='surf1' /
&OBST XB=400.0,402.0,645.0,647.0,380,568.793579 SURF_ID='surf1' /
&OBST XB=400.0,402.0,646.0,648.0,380,569.169617 SURF_ID='surf1' /
&OBST XB=400.0,402.0,647.0,649.0,380,569.169617 SURF_ID='surf1' /
&OBST XB=400.0,402.0,648.0,650.0,380,569.351379 SURF_ID='surf1' /
&OBST XB=400.0,402.0,649.0,651.0,380,569.351379 SURF_ID='surf1' /
&OBST XB=400.0,402.0,650.0,652.0,380,569.335815 SURF_ID='surf1' /
&OBST XB=400.0,402.0,651.0,653.0,380,569.335815 SURF_ID='surf1' /
&OBST XB=400.0,402.0,652.0,654.0,380,569.314697 SURF_ID='surf1' /
&OBST XB=400.0,402.0,653.0,655.0,380,569.314697 SURF_ID='surf1' /
&OBST XB=400.0,402.0,654.0,656.0,380,569.291382 SURF_ID='surf1' /
&OBST XB=400.0,402.0,655.0,657.0,380,569.291382 SURF_ID='surf1' /
&OBST XB=400.0,402.0,656.0,658.0,380,569.270264 SURF_ID='surf1' /
&OBST XB=400.0,402.0,657.0,659.0,380,569.270264 SURF_ID='surf1' /
&OBST XB=400.0,402.0,658.0,660.0,380,569.2820429999998 SURF_ID='surf1' /
&OBST XB=400.0,402.0,659.0,661.0,380,569.2820429999998 SURF_ID='surf1' /
&OBST XB=400.0,402.0,660.0,662.0,380,569.337036 SURF_ID='surf1' /
&OBST XB=400.0,402.0,661.0,663.0,380,569.337036 SURF_ID='surf1' /
&OBST XB=400.0,402.0,662.0,664.0,380,569.404907 SURF_ID='surf1' /
&OBST XB=400.0,402.0,663.0,665.0,380,569.404907 SURF_ID='surf1' /
&OBST XB=400.0,402.0,664.0,666.0,380,569.466003 SURF_ID='surf1' /
&OBST XB=400.0,402.0,665.0,667.0,380,569.466003 SURF_ID='surf1' /
&OBST XB=400.0,402.0,666.0,668.0,380,569.527161 SURF_ID='surf1' /
&OBST XB=400.0,402.0,667.0,669.0,380,569.527161 SURF_ID='surf1' /
&OBST XB=400.0,402.0,668.0,670.0,380,569.538696 SURF_ID='surf1' /
&OBST XB=400.0,402.0,669.0,671.0,380,569.538696 SURF_ID='surf1' /
&OBST XB=400.0,402.0,670.0,672.0,380,569.475464 SURF_ID='surf1' /
&OBST XB=400.0,402.0,671.0,673.0,380,569.475464 SURF_ID='surf1' /
&OBST XB=400.0,402.0,672.0,674.0,380,569.383789 SURF_ID='surf1' /
&OBST XB=400.0,402.0,673.0,675.0,380,569.383789 SURF_ID='surf1' /
&OBST XB=400.0,402.0,674.0,676.0,380,569.2818599999998 SURF_ID='surf1' /
&OBST XB=400.0,402.0,675.0,677.0,380,569.2818599999998 SURF_ID='surf1' /
&OBST XB=400.0,402.0,676.0,678.0,380,569.179871 SURF_ID='surf1' /
&OBST XB=400.0,402.0,677.0,679.0,380,569.179871 SURF_ID='surf1' /
&OBST XB=400.0,402.0,678.0,680.0,380,569.038818 SURF_ID='surf1' /
&OBST XB=400.0,402.0,679.0,681.0,380,569.038818 SURF_ID='surf1' /
&OBST XB=400.0,402.0,680.0,682.0,380,568.7773440000002 SURF_ID='surf1' /
&OBST XB=401.0,403.0,480.0,482.0,380,506.64407300000005 SURF_ID='surf1' /
&OBST XB=401.0,403.0,481.0,483.0,380,506.64407300000005 SURF_ID='surf1' /
&OBST XB=401.0,403.0,482.0,484.0,380,507.36477699999995 SURF_ID='surf1' /
&OBST XB=401.0,403.0,483.0,485.0,380,507.36477699999995 SURF_ID='surf1' /
&OBST XB=401.0,403.0,484.0,486.0,380,508.01062 SURF_ID='surf1' /
&OBST XB=401.0,403.0,485.0,487.0,380,508.01062 SURF_ID='surf1' /
&OBST XB=401.0,403.0,486.0,488.0,380,508.681763 SURF_ID='surf1' /
&OBST XB=401.0,403.0,487.0,489.0,380,508.681763 SURF_ID='surf1' /
&OBST XB=401.0,403.0,488.0,490.0,380,509.28576699999996 SURF_ID='surf1' /
&OBST XB=401.0,403.0,489.0,491.0,380,509.28576699999996 SURF_ID='surf1' /
&OBST XB=401.0,403.0,490.0,492.0,380,509.889709 SURF_ID='surf1' /
&OBST XB=401.0,403.0,491.0,493.0,380,509.889709 SURF_ID='surf1' /
&OBST XB=401.0,403.0,492.0,494.0,380,510.545898 SURF_ID='surf1' /
&OBST XB=401.0,403.0,493.0,495.0,380,510.545898 SURF_ID='surf1' /
&OBST XB=401.0,403.0,494.0,496.0,380,511.12524400000007 SURF_ID='surf1' /
&OBST XB=401.0,403.0,495.0,497.0,380,511.12524400000007 SURF_ID='surf1' /
&OBST XB=401.0,403.0,496.0,498.0,380,511.59082 SURF_ID='surf1' /
&OBST XB=401.0,403.0,497.0,499.0,380,511.59082 SURF_ID='surf1' /
&OBST XB=401.0,403.0,498.0,500.0,380,512.056458 SURF_ID='surf1' /
&OBST XB=401.0,403.0,499.0,501.0,380,512.056458 SURF_ID='surf1' /
&OBST XB=401.0,403.0,500.0,502.0,380,512.573853 SURF_ID='surf1' /
&OBST XB=401.0,403.0,501.0,503.0,380,512.573853 SURF_ID='surf1' /
&OBST XB=401.0,403.0,502.0,504.0,380,513.03949 SURF_ID='surf1' /
&OBST XB=401.0,403.0,503.0,505.0,380,513.03949 SURF_ID='surf1' /
&OBST XB=401.0,403.0,504.0,506.0,380,513.424683 SURF_ID='surf1' /
&OBST XB=401.0,403.0,505.0,507.0,380,513.424683 SURF_ID='surf1' /
&OBST XB=401.0,403.0,506.0,508.0,380,513.775879 SURF_ID='surf1' /
&OBST XB=401.0,403.0,507.0,509.0,380,513.775879 SURF_ID='surf1' /
&OBST XB=401.0,403.0,508.0,510.0,380,514.1218259999998 SURF_ID='surf1' /
&OBST XB=401.0,403.0,509.0,511.0,380,514.1218259999998 SURF_ID='surf1' /
&OBST XB=401.0,403.0,510.0,512.0,380,514.433167 SURF_ID='surf1' /
&OBST XB=401.0,403.0,511.0,513.0,380,514.433167 SURF_ID='surf1' /
&OBST XB=401.0,403.0,512.0,514.0,380,514.744507 SURF_ID='surf1' /
&OBST XB=401.0,403.0,513.0,515.0,380,514.744507 SURF_ID='surf1' /
&OBST XB=401.0,403.0,514.0,516.0,380,515.083374 SURF_ID='surf1' /
&OBST XB=401.0,403.0,515.0,517.0,380,515.083374 SURF_ID='surf1' /
&OBST XB=401.0,403.0,516.0,518.0,380,515.381165 SURF_ID='surf1' /
&OBST XB=401.0,403.0,517.0,519.0,380,515.381165 SURF_ID='surf1' /
&OBST XB=401.0,403.0,518.0,520.0,380,515.678284 SURF_ID='surf1' /
&OBST XB=401.0,403.0,519.0,521.0,380,515.678284 SURF_ID='surf1' /
&OBST XB=401.0,403.0,520.0,522.0,380,516.008484 SURF_ID='surf1' /
&OBST XB=401.0,403.0,521.0,523.0,380,516.008484 SURF_ID='surf1' /
&OBST XB=401.0,403.0,522.0,524.0,380,516.338684 SURF_ID='surf1' /
&OBST XB=401.0,403.0,523.0,525.0,380,516.338684 SURF_ID='surf1' /
&OBST XB=401.0,403.0,524.0,526.0,380,516.7843019999998 SURF_ID='surf1' /
&OBST XB=401.0,403.0,525.0,527.0,380,516.7843019999998 SURF_ID='surf1' /
&OBST XB=401.0,403.0,526.0,528.0,380,517.466309 SURF_ID='surf1' /
&OBST XB=401.0,403.0,527.0,529.0,380,517.466309 SURF_ID='surf1' /
&OBST XB=401.0,403.0,528.0,530.0,380,518.269836 SURF_ID='surf1' /
&OBST XB=401.0,403.0,529.0,531.0,380,518.269836 SURF_ID='surf1' /
&OBST XB=401.0,403.0,530.0,532.0,380,518.993347 SURF_ID='surf1' /
&OBST XB=401.0,403.0,531.0,533.0,380,518.993347 SURF_ID='surf1' /
&OBST XB=401.0,403.0,532.0,534.0,380,519.7167969999998 SURF_ID='surf1' /
&OBST XB=401.0,403.0,533.0,535.0,380,519.7167969999998 SURF_ID='surf1' /
&OBST XB=401.0,403.0,534.0,536.0,380,520.687866 SURF_ID='surf1' /
&OBST XB=401.0,403.0,535.0,537.0,380,520.687866 SURF_ID='surf1' /
&OBST XB=401.0,403.0,536.0,538.0,380,521.9501339999998 SURF_ID='surf1' /
&OBST XB=401.0,403.0,537.0,539.0,380,521.9501339999998 SURF_ID='surf1' /
&OBST XB=401.0,403.0,538.0,540.0,380,523.1982419999998 SURF_ID='surf1' /
&OBST XB=401.0,403.0,539.0,541.0,380,523.1982419999998 SURF_ID='surf1' /
&OBST XB=401.0,403.0,540.0,542.0,380,524.447266 SURF_ID='surf1' /
&OBST XB=401.0,403.0,541.0,543.0,380,524.447266 SURF_ID='surf1' /
&OBST XB=401.0,403.0,542.0,544.0,380,525.835205 SURF_ID='surf1' /
&OBST XB=401.0,403.0,543.0,545.0,380,525.835205 SURF_ID='surf1' /
&OBST XB=401.0,403.0,544.0,546.0,380,526.911865 SURF_ID='surf1' /
&OBST XB=401.0,403.0,545.0,547.0,380,526.911865 SURF_ID='surf1' /
&OBST XB=401.0,403.0,546.0,548.0,380,527.445801 SURF_ID='surf1' /
&OBST XB=401.0,403.0,547.0,549.0,380,527.445801 SURF_ID='surf1' /
&OBST XB=401.0,403.0,548.0,550.0,380,527.748108 SURF_ID='surf1' /
&OBST XB=401.0,403.0,549.0,551.0,380,527.748108 SURF_ID='surf1' /
&OBST XB=401.0,403.0,550.0,552.0,380,528.050476 SURF_ID='surf1' /
&OBST XB=401.0,403.0,551.0,553.0,380,528.050476 SURF_ID='surf1' /
&OBST XB=401.0,403.0,552.0,554.0,380,528.322632 SURF_ID='surf1' /
&OBST XB=401.0,403.0,553.0,555.0,380,528.322632 SURF_ID='surf1' /
&OBST XB=401.0,403.0,554.0,556.0,380,528.728943 SURF_ID='surf1' /
&OBST XB=401.0,403.0,555.0,557.0,380,528.728943 SURF_ID='surf1' /
&OBST XB=401.0,403.0,556.0,558.0,380,529.675354 SURF_ID='surf1' /
&OBST XB=401.0,403.0,557.0,559.0,380,529.675354 SURF_ID='surf1' /
&OBST XB=401.0,403.0,558.0,560.0,380,530.8651120000002 SURF_ID='surf1' /
&OBST XB=401.0,403.0,559.0,561.0,380,530.8651120000002 SURF_ID='surf1' /
&OBST XB=401.0,403.0,560.0,562.0,380,532.054077 SURF_ID='surf1' /
&OBST XB=401.0,403.0,561.0,563.0,380,532.054077 SURF_ID='surf1' /
&OBST XB=401.0,403.0,562.0,564.0,380,533.375427 SURF_ID='surf1' /
&OBST XB=401.0,403.0,563.0,565.0,380,533.375427 SURF_ID='surf1' /
&OBST XB=401.0,403.0,564.0,566.0,380,534.682861 SURF_ID='surf1' /
&OBST XB=401.0,403.0,565.0,567.0,380,534.682861 SURF_ID='surf1' /
&OBST XB=401.0,403.0,566.0,568.0,380,535.801636 SURF_ID='surf1' /
&OBST XB=401.0,403.0,567.0,569.0,380,535.801636 SURF_ID='surf1' /
&OBST XB=401.0,403.0,568.0,570.0,380,536.864685 SURF_ID='surf1' /
&OBST XB=401.0,403.0,569.0,571.0,380,536.864685 SURF_ID='surf1' /
&OBST XB=401.0,403.0,570.0,572.0,380,538.045288 SURF_ID='surf1' /
&OBST XB=401.0,403.0,571.0,573.0,380,538.045288 SURF_ID='surf1' /
&OBST XB=401.0,403.0,572.0,574.0,380,539.107605 SURF_ID='surf1' /
&OBST XB=401.0,403.0,573.0,575.0,380,539.107605 SURF_ID='surf1' /
&OBST XB=401.0,403.0,574.0,576.0,380,540.170654 SURF_ID='surf1' /
&OBST XB=401.0,403.0,575.0,577.0,380,540.170654 SURF_ID='surf1' /
&OBST XB=401.0,403.0,576.0,578.0,380,541.3117679999998 SURF_ID='surf1' /
&OBST XB=401.0,403.0,577.0,579.0,380,541.3117679999998 SURF_ID='surf1' /
&OBST XB=401.0,403.0,578.0,580.0,380,542.410889 SURF_ID='surf1' /
&OBST XB=401.0,403.0,579.0,581.0,380,542.410889 SURF_ID='surf1' /
&OBST XB=401.0,403.0,580.0,582.0,380,543.398071 SURF_ID='surf1' /
&OBST XB=401.0,403.0,581.0,583.0,380,543.398071 SURF_ID='surf1' /
&OBST XB=401.0,403.0,582.0,584.0,380,544.3847049999998 SURF_ID='surf1' /
&OBST XB=401.0,403.0,583.0,585.0,380,544.3847049999998 SURF_ID='surf1' /
&OBST XB=401.0,403.0,584.0,586.0,380,545.4812009999998 SURF_ID='surf1' /
&OBST XB=401.0,403.0,585.0,587.0,380,545.4812009999998 SURF_ID='surf1' /
&OBST XB=401.0,403.0,586.0,588.0,380,546.530334 SURF_ID='surf1' /
&OBST XB=401.0,403.0,587.0,589.0,380,546.530334 SURF_ID='surf1' /
&OBST XB=401.0,403.0,588.0,590.0,380,547.6680299999998 SURF_ID='surf1' /
&OBST XB=401.0,403.0,589.0,591.0,380,547.6680299999998 SURF_ID='surf1' /
&OBST XB=401.0,403.0,590.0,592.0,380,548.942322 SURF_ID='surf1' /
&OBST XB=401.0,403.0,591.0,593.0,380,548.942322 SURF_ID='surf1' /
&OBST XB=401.0,403.0,592.0,594.0,380,550.2156980000002 SURF_ID='surf1' /
&OBST XB=401.0,403.0,593.0,595.0,380,550.2156980000002 SURF_ID='surf1' /
&OBST XB=401.0,403.0,594.0,596.0,380,551.361633 SURF_ID='surf1' /
&OBST XB=401.0,403.0,595.0,597.0,380,551.361633 SURF_ID='surf1' /
&OBST XB=401.0,403.0,596.0,598.0,380,552.466553 SURF_ID='surf1' /
&OBST XB=401.0,403.0,597.0,599.0,380,552.466553 SURF_ID='surf1' /
&OBST XB=401.0,403.0,598.0,600.0,380,553.634155 SURF_ID='surf1' /
&OBST XB=401.0,403.0,599.0,601.0,380,553.634155 SURF_ID='surf1' /
&OBST XB=401.0,403.0,600.0,602.0,380,554.664185 SURF_ID='surf1' /
&OBST XB=401.0,403.0,601.0,603.0,380,554.664185 SURF_ID='surf1' /
&OBST XB=401.0,403.0,602.0,604.0,380,555.694214 SURF_ID='surf1' /
&OBST XB=401.0,403.0,603.0,605.0,380,555.694214 SURF_ID='surf1' /
&OBST XB=401.0,403.0,604.0,606.0,380,556.838135 SURF_ID='surf1' /
&OBST XB=401.0,403.0,605.0,607.0,380,556.838135 SURF_ID='surf1' /
&OBST XB=401.0,403.0,606.0,608.0,380,557.842163 SURF_ID='surf1' /
&OBST XB=401.0,403.0,607.0,609.0,380,557.842163 SURF_ID='surf1' /
&OBST XB=401.0,403.0,608.0,610.0,380,558.542603 SURF_ID='surf1' /
&OBST XB=401.0,403.0,609.0,611.0,380,558.542603 SURF_ID='surf1' /
&OBST XB=401.0,403.0,610.0,612.0,380,559.145691 SURF_ID='surf1' /
&OBST XB=401.0,403.0,611.0,613.0,380,559.145691 SURF_ID='surf1' /
&OBST XB=401.0,403.0,612.0,614.0,380,559.81604 SURF_ID='surf1' /
&OBST XB=401.0,403.0,613.0,615.0,380,559.81604 SURF_ID='surf1' /
&OBST XB=401.0,403.0,614.0,616.0,380,560.419189 SURF_ID='surf1' /
&OBST XB=401.0,403.0,615.0,617.0,380,560.419189 SURF_ID='surf1' /
&OBST XB=401.0,403.0,616.0,618.0,380,561.063538 SURF_ID='surf1' /
&OBST XB=401.0,403.0,617.0,619.0,380,561.063538 SURF_ID='surf1' /
&OBST XB=401.0,403.0,618.0,620.0,380,561.898926 SURF_ID='surf1' /
&OBST XB=401.0,403.0,619.0,621.0,380,561.898926 SURF_ID='surf1' /
&OBST XB=401.0,403.0,620.0,622.0,380,562.817139 SURF_ID='surf1' /
&OBST XB=401.0,403.0,621.0,623.0,380,562.817139 SURF_ID='surf1' /
&OBST XB=401.0,403.0,622.0,624.0,380,563.643433 SURF_ID='surf1' /
&OBST XB=401.0,403.0,623.0,625.0,380,563.643433 SURF_ID='surf1' /
&OBST XB=401.0,403.0,624.0,626.0,380,564.4697269999998 SURF_ID='surf1' /
&OBST XB=401.0,403.0,625.0,627.0,380,564.4697269999998 SURF_ID='surf1' /
&OBST XB=401.0,403.0,626.0,628.0,380,565.315063 SURF_ID='surf1' /
&OBST XB=401.0,403.0,627.0,629.0,380,565.315063 SURF_ID='surf1' /
&OBST XB=401.0,403.0,628.0,630.0,380,565.862305 SURF_ID='surf1' /
&OBST XB=401.0,403.0,629.0,631.0,380,565.862305 SURF_ID='surf1' /
&OBST XB=401.0,403.0,630.0,632.0,380,566.224792 SURF_ID='surf1' /
&OBST XB=401.0,403.0,631.0,633.0,380,566.224792 SURF_ID='surf1' /
&OBST XB=401.0,403.0,632.0,634.0,380,566.627563 SURF_ID='surf1' /
&OBST XB=401.0,403.0,633.0,635.0,380,566.627563 SURF_ID='surf1' /
&OBST XB=401.0,403.0,634.0,636.0,380,567.030396 SURF_ID='surf1' /
&OBST XB=401.0,403.0,635.0,637.0,380,567.030396 SURF_ID='surf1' /
&OBST XB=401.0,403.0,636.0,638.0,380,567.3924559999998 SURF_ID='surf1' /
&OBST XB=401.0,403.0,637.0,639.0,380,567.3924559999998 SURF_ID='surf1' /
&OBST XB=401.0,403.0,638.0,640.0,380,567.741028 SURF_ID='surf1' /
&OBST XB=401.0,403.0,639.0,641.0,380,567.741028 SURF_ID='surf1' /
&OBST XB=401.0,403.0,640.0,642.0,380,568.116821 SURF_ID='surf1' /
&OBST XB=401.0,403.0,641.0,643.0,380,568.116821 SURF_ID='surf1' /
&OBST XB=401.0,403.0,642.0,644.0,380,568.4552 SURF_ID='surf1' /
&OBST XB=401.0,403.0,643.0,645.0,380,568.4552 SURF_ID='surf1' /
&OBST XB=401.0,403.0,644.0,646.0,380,568.793579 SURF_ID='surf1' /
&OBST XB=401.0,403.0,645.0,647.0,380,568.793579 SURF_ID='surf1' /
&OBST XB=401.0,403.0,646.0,648.0,380,569.169617 SURF_ID='surf1' /
&OBST XB=401.0,403.0,647.0,649.0,380,569.169617 SURF_ID='surf1' /
&OBST XB=401.0,403.0,648.0,650.0,380,569.351379 SURF_ID='surf1' /
&OBST XB=401.0,403.0,649.0,651.0,380,569.351379 SURF_ID='surf1' /
&OBST XB=401.0,403.0,650.0,652.0,380,569.335815 SURF_ID='surf1' /
&OBST XB=401.0,403.0,651.0,653.0,380,569.335815 SURF_ID='surf1' /
&OBST XB=401.0,403.0,652.0,654.0,380,569.314697 SURF_ID='surf1' /
&OBST XB=401.0,403.0,653.0,655.0,380,569.314697 SURF_ID='surf1' /
&OBST XB=401.0,403.0,654.0,656.0,380,569.291382 SURF_ID='surf1' /
&OBST XB=401.0,403.0,655.0,657.0,380,569.291382 SURF_ID='surf1' /
&OBST XB=401.0,403.0,656.0,658.0,380,569.270264 SURF_ID='surf1' /
&OBST XB=401.0,403.0,657.0,659.0,380,569.270264 SURF_ID='surf1' /
&OBST XB=401.0,403.0,658.0,660.0,380,569.2820429999998 SURF_ID='surf1' /
&OBST XB=401.0,403.0,659.0,661.0,380,569.2820429999998 SURF_ID='surf1' /
&OBST XB=401.0,403.0,660.0,662.0,380,569.337036 SURF_ID='surf1' /
&OBST XB=401.0,403.0,661.0,663.0,380,569.337036 SURF_ID='surf1' /
&OBST XB=401.0,403.0,662.0,664.0,380,569.404907 SURF_ID='surf1' /
&OBST XB=401.0,403.0,663.0,665.0,380,569.404907 SURF_ID='surf1' /
&OBST XB=401.0,403.0,664.0,666.0,380,569.466003 SURF_ID='surf1' /
&OBST XB=401.0,403.0,665.0,667.0,380,569.466003 SURF_ID='surf1' /
&OBST XB=401.0,403.0,666.0,668.0,380,569.527161 SURF_ID='surf1' /
&OBST XB=401.0,403.0,667.0,669.0,380,569.527161 SURF_ID='surf1' /
&OBST XB=401.0,403.0,668.0,670.0,380,569.538696 SURF_ID='surf1' /
&OBST XB=401.0,403.0,669.0,671.0,380,569.538696 SURF_ID='surf1' /
&OBST XB=401.0,403.0,670.0,672.0,380,569.475464 SURF_ID='surf1' /
&OBST XB=401.0,403.0,671.0,673.0,380,569.475464 SURF_ID='surf1' /
&OBST XB=401.0,403.0,672.0,674.0,380,569.383789 SURF_ID='surf1' /
&OBST XB=401.0,403.0,673.0,675.0,380,569.383789 SURF_ID='surf1' /
&OBST XB=401.0,403.0,674.0,676.0,380,569.2818599999998 SURF_ID='surf1' /
&OBST XB=401.0,403.0,675.0,677.0,380,569.2818599999998 SURF_ID='surf1' /
&OBST XB=401.0,403.0,676.0,678.0,380,569.179871 SURF_ID='surf1' /
&OBST XB=401.0,403.0,677.0,679.0,380,569.179871 SURF_ID='surf1' /
&OBST XB=401.0,403.0,678.0,680.0,380,569.038818 SURF_ID='surf1' /