&HEAD CHID='Region3_cat', TITLE='Concatenated : Simulation of Chimney Tops fire', FYI='' /

&MESH IJK=25,25,15, XB=332,432.0,340,440.0,380,440.0, MULT_ID='mesh' /
&MULT ID='mesh', DX=100.0, DY=100.0, DZ=60.0, I_LOWER=0, I_UPPER=1, J_LOWER=0, J_UPPER=1, K_UPPER=3 /

&MISC TMPA=30., TERRAIN_CASE=.TRUE., TERRAIN_IMAGE='Region3.png', VERBOSE=.TRUE., RESTART=.FALSE., PROJECTION=.TRUE.  /
&TIME T_BEGIN = 120.0, T_END = 180.0 /

&DUMP NFRAMES=120, DT_PART=100., CFL_FILE=.TRUE., DT_PL3D=60.0 /
&WIND DIRECTION=135., SPEED=5., SPONGE_CELLS=0, STRATIFICATION=.FALSE. /

&SLCF XB=332,532,340,540,380,620, QUANTITY='HRRPUV', CELL_CENTERED=.TRUE. /



&RAMP ID='fire', T= 120, F=1. /
&RAMP ID='fire', T= 125.0, F=1. /
&RAMP ID='fire', T= 130.0, F=0. /
&VENT MB='XMIN', SURF_ID='OPEN' /
&VENT MB='XMAX', SURF_ID='OPEN' /
&VENT MB='YMIN', SURF_ID='OPEN' /
&VENT MB='YMAX', SURF_ID='OPEN' /
&VENT MB='ZMAX', SURF_ID='OPEN' /

&REAC FUEL='CELLULOSE', C=6, H=10, O=5, SOOT_YIELD=0.005 /

&SPEC ID='WATER VAPOR' /

&SURF ID                        = 'grass'
      MATL_ID(1,1:2)            = 'GENERIC VEGETATION','MOISTURE'
      MATL_MASS_FRACTION(1,1:2) = 0.937,0.063
      THICKNESS                 = 0.0002
      LENGTH                    = 0.21
      HEAT_TRANSFER_COEFFICIENT = 30.
      GEOMETRY                  = 'CYLINDRICAL' /

&SURF ID                        = 'needles'
      MATL_ID(1,1:2)            = 'GENERIC VEGETATION','MOISTURE'
      MATL_MASS_FRACTION(1,1:2) = 0.95,0.05
      THICKNESS                 = 0.02
      LENGTH                    = 0.21
      HEAT_TRANSFER_COEFFICIENT = 30.
      GEOMETRY                  = 'CYLINDRICAL' /

&MATL ID = 'GENERIC VEGETATION'
      DENSITY = 500.
      CONDUCTIVITY = 0.1
      SPECIFIC_HEAT= 1.5
      REFERENCE_TEMPERATURE = 200
      PYROLYSIS_RANGE = 30.
      NU_MATL = 0.2
      NU_SPEC = 0.8
      SPEC_ID = 'CELLULOSE'
      HEAT_OF_COMBUSTION = 15600.
      HEAT_OF_REACTION = 418.
      MATL_ID  = 'CHAR' /

&MATL ID = 'MOISTURE'
      DENSITY = 1000.
      CONDUCTIVITY = 0.1
      SPECIFIC_HEAT= 4.184
      REFERENCE_TEMPERATURE = 100.
      PYROLYSIS_RANGE = 10.
      NU_SPEC = 1.0
      SPEC_ID = 'WATER VAPOR'
      HEAT_OF_REACTION = 2500./

&MATL ID = 'CHAR'
      DENSITY  = 100.
      CONDUCTIVITY = 0.1
      SPECIFIC_HEAT = 1.0 /

&MATL ID='DIRT'
      CONDUCTIVITY = 0.25
      SPECIFIC_HEAT = 2.
     DENSITY = 1300. /

&PART ID='foliage', DRAG_COEFFICIENT=1.0, SURF_ID='needles', SAMPLING_FACTOR=5,
      QUANTITIES='PARTICLE TEMPERATURE','PARTICLE MASS','PARTICLE DIAMETER', STATIC=.TRUE., COLOR='GREEN' /

&PART ID='grass', DRAG_COEFFICIENT=1.0, SURF_ID='grass', SAMPLING_FACTOR=958,
      QUANTITIES='PARTICLE TEMPERATURE','PARTICLE MASS','PARTICLE DIAMETER', STATIC=.TRUE., COLOR='BROWN' /

&SURF ID = 'surf1', RGB = 122,117,48, MATL_ID='DIRT', THICKNESS=0.2, PART_ID='grass', PARTICLE_SURFACE_DENSITY=1.0 /
&SURF ID = 'surf2', RGB = 0,100,0, MATL_ID='DIRT', THICKNESS=0.2 /

&OBST XB=332.0,336.0,340.0,344.0,380,479.40554800000007 SURF_ID='surf1' /
&OBST XB=332.0,336.0,341.0,345.0,380,479.40554800000007 SURF_ID='surf1' /
&OBST XB=332.0,336.0,342.0,346.0,380,479.93109100000004 SURF_ID='surf1' /
&OBST XB=332.0,336.0,343.0,347.0,380,479.93109100000004 SURF_ID='surf1' /
&OBST XB=332.0,336.0,344.0,348.0,380,480.45666500000004 SURF_ID='surf1' /
&OBST XB=332.0,336.0,345.0,349.0,380,480.45666500000004 SURF_ID='surf1' /
&OBST XB=332.0,336.0,346.0,350.0,380,481.04040499999996 SURF_ID='surf1' /
&OBST XB=332.0,336.0,347.0,351.0,380,481.04040499999996 SURF_ID='surf1' /
&OBST XB=332.0,336.0,348.0,352.0,380,481.60424800000004 SURF_ID='surf1' /
&OBST XB=332.0,336.0,349.0,353.0,380,481.60424800000004 SURF_ID='surf1' /
&OBST XB=332.0,336.0,350.0,354.0,380,482.42117300000007 SURF_ID='surf1' /
&OBST XB=332.0,336.0,351.0,355.0,380,482.42117300000007 SURF_ID='surf1' /
&OBST XB=332.0,336.0,352.0,356.0,380,483.510681 SURF_ID='surf1' /
&OBST XB=332.0,336.0,353.0,357.0,380,483.510681 SURF_ID='surf1' /
&OBST XB=332.0,336.0,354.0,358.0,380,484.60022000000004 SURF_ID='surf1' /
&OBST XB=332.0,336.0,355.0,359.0,380,484.60022000000004 SURF_ID='surf1' /
&OBST XB=332.0,336.0,356.0,360.0,380,485.58062699999994 SURF_ID='surf1' /
&OBST XB=332.0,336.0,357.0,361.0,380,485.58062699999994 SURF_ID='surf1' /
&OBST XB=332.0,336.0,358.0,362.0,380,486.575378 SURF_ID='surf1' /
&OBST XB=332.0,336.0,359.0,363.0,380,486.575378 SURF_ID='surf1' /
&OBST XB=332.0,336.0,360.0,364.0,380,487.831421 SURF_ID='surf1' /
&OBST XB=332.0,336.0,361.0,365.0,380,487.831421 SURF_ID='surf1' /
&OBST XB=332.0,336.0,362.0,366.0,380,489.085754 SURF_ID='surf1' /
&OBST XB=332.0,336.0,363.0,367.0,380,489.085754 SURF_ID='surf1' /
&OBST XB=332.0,336.0,364.0,368.0,380,490.34011799999996 SURF_ID='surf1' /
&OBST XB=332.0,336.0,365.0,369.0,380,490.34011799999996 SURF_ID='surf1' /
&OBST XB=332.0,336.0,366.0,370.0,380,491.73400899999996 SURF_ID='surf1' /
&OBST XB=332.0,336.0,367.0,371.0,380,491.73400899999996 SURF_ID='surf1' /
&OBST XB=332.0,336.0,368.0,372.0,380,493.13226299999997 SURF_ID='surf1' /
&OBST XB=332.0,336.0,369.0,373.0,380,493.13226299999997 SURF_ID='surf1' /
&OBST XB=332.0,336.0,370.0,374.0,380,494.485229 SURF_ID='surf1' /
&OBST XB=332.0,336.0,371.0,375.0,380,494.485229 SURF_ID='surf1' /
&OBST XB=332.0,336.0,372.0,376.0,380,495.95169100000004 SURF_ID='surf1' /
&OBST XB=332.0,336.0,373.0,377.0,380,495.95169100000004 SURF_ID='surf1' /
&OBST XB=332.0,336.0,374.0,378.0,380,497.581299 SURF_ID='surf1' /
&OBST XB=332.0,336.0,375.0,379.0,380,497.581299 SURF_ID='surf1' /
&OBST XB=332.0,336.0,376.0,380.0,380,499.047821 SURF_ID='surf1' /
&OBST XB=332.0,336.0,377.0,381.0,380,499.047821 SURF_ID='surf1' /
&OBST XB=332.0,336.0,378.0,382.0,380,500.51428200000004 SURF_ID='surf1' /
&OBST XB=332.0,336.0,379.0,383.0,380,500.51428200000004 SURF_ID='surf1' /
&OBST XB=332.0,336.0,380.0,384.0,380,501.930267 SURF_ID='surf1' /
&OBST XB=332.0,336.0,381.0,385.0,380,501.930267 SURF_ID='surf1' /
&OBST XB=332.0,336.0,382.0,386.0,380,503.07669100000004 SURF_ID='surf1' /
&OBST XB=332.0,336.0,383.0,387.0,380,503.07669100000004 SURF_ID='surf1' /
&OBST XB=332.0,336.0,384.0,388.0,380,504.05810499999995 SURF_ID='surf1' /
&OBST XB=332.0,336.0,385.0,389.0,380,504.05810499999995 SURF_ID='surf1' /
&OBST XB=332.0,336.0,386.0,390.0,380,505.03945899999997 SURF_ID='surf1' /
&OBST XB=332.0,336.0,387.0,391.0,380,505.03945899999997 SURF_ID='surf1' /
&OBST XB=332.0,336.0,388.0,392.0,380,506.130005 SURF_ID='surf1' /
&OBST XB=332.0,336.0,389.0,393.0,380,506.130005 SURF_ID='surf1' /
&OBST XB=332.0,336.0,390.0,394.0,380,507.077454 SURF_ID='surf1' /
&OBST XB=332.0,336.0,391.0,395.0,380,507.077454 SURF_ID='surf1' /
&OBST XB=332.0,336.0,392.0,396.0,380,507.960968 SURF_ID='surf1' /
&OBST XB=332.0,336.0,393.0,397.0,380,507.960968 SURF_ID='surf1' /
&OBST XB=332.0,336.0,394.0,398.0,380,508.92425499999996 SURF_ID='surf1' /
&OBST XB=332.0,336.0,395.0,399.0,380,508.92425499999996 SURF_ID='surf1' /
&OBST XB=332.0,336.0,396.0,400.0,380,509.888092 SURF_ID='surf1' /
&OBST XB=332.0,336.0,397.0,401.0,380,509.888092 SURF_ID='surf1' /
&OBST XB=332.0,336.0,398.0,402.0,380,510.75543200000004 SURF_ID='surf1' /
&OBST XB=332.0,336.0,399.0,403.0,380,510.75543200000004 SURF_ID='surf1' /
&OBST XB=332.0,336.0,400.0,404.0,380,511.76800499999996 SURF_ID='surf1' /
&OBST XB=332.0,336.0,401.0,405.0,380,511.76800499999996 SURF_ID='surf1' /
&OBST XB=332.0,336.0,402.0,406.0,380,513.17804 SURF_ID='surf1' /
&OBST XB=332.0,336.0,403.0,407.0,380,513.17804 SURF_ID='surf1' /
&OBST XB=332.0,336.0,404.0,408.0,380,514.5878299999998 SURF_ID='surf1' /
&OBST XB=332.0,336.0,405.0,409.0,380,514.5878299999998 SURF_ID='surf1' /
&OBST XB=332.0,336.0,406.0,410.0,380,515.998596 SURF_ID='surf1' /
&OBST XB=332.0,336.0,407.0,411.0,380,515.998596 SURF_ID='surf1' /
&OBST XB=332.0,336.0,408.0,412.0,380,517.566284 SURF_ID='surf1' /
&OBST XB=332.0,336.0,409.0,413.0,380,517.566284 SURF_ID='surf1' /
&OBST XB=332.0,336.0,410.0,414.0,380,518.880493 SURF_ID='surf1' /
&OBST XB=332.0,336.0,411.0,415.0,380,518.880493 SURF_ID='surf1' /
&OBST XB=332.0,336.0,412.0,416.0,380,519.5626219999998 SURF_ID='surf1' /
&OBST XB=332.0,336.0,413.0,417.0,380,519.5626219999998 SURF_ID='surf1' /
&OBST XB=332.0,336.0,414.0,418.0,380,519.903931 SURF_ID='surf1' /
&OBST XB=332.0,336.0,415.0,419.0,380,519.903931 SURF_ID='surf1' /
&OBST XB=332.0,336.0,416.0,420.0,380,520.2830809999998 SURF_ID='surf1' /
&OBST XB=332.0,336.0,417.0,421.0,380,520.2830809999998 SURF_ID='surf1' /
&OBST XB=332.0,336.0,418.0,422.0,380,520.624573 SURF_ID='surf1' /
&OBST XB=332.0,336.0,419.0,423.0,380,520.624573 SURF_ID='surf1' /
&OBST XB=332.0,336.0,420.0,424.0,380,520.943298 SURF_ID='surf1' /
&OBST XB=332.0,336.0,421.0,425.0,380,520.943298 SURF_ID='surf1' /
&OBST XB=332.0,336.0,422.0,426.0,380,521.167297 SURF_ID='surf1' /
&OBST XB=332.0,336.0,423.0,427.0,380,521.167297 SURF_ID='surf1' /
&OBST XB=332.0,336.0,424.0,428.0,380,521.281433 SURF_ID='surf1' /
&OBST XB=332.0,336.0,425.0,429.0,380,521.281433 SURF_ID='surf1' /
&OBST XB=332.0,336.0,426.0,430.0,380,521.384094 SURF_ID='surf1' /
&OBST XB=332.0,336.0,427.0,431.0,380,521.384094 SURF_ID='surf1' /
&OBST XB=332.0,336.0,428.0,432.0,380,521.4868769999998 SURF_ID='surf1' /
&OBST XB=332.0,336.0,429.0,433.0,380,521.4868769999998 SURF_ID='surf1' /
&OBST XB=332.0,336.0,430.0,434.0,380,521.6075440000002 SURF_ID='surf1' /
&OBST XB=332.0,336.0,431.0,435.0,380,521.6075440000002 SURF_ID='surf1' /
&OBST XB=332.0,336.0,432.0,436.0,380,521.760986 SURF_ID='surf1' /
&OBST XB=332.0,336.0,433.0,437.0,380,521.760986 SURF_ID='surf1' /
&OBST XB=332.0,336.0,434.0,438.0,380,521.963318 SURF_ID='surf1' /
&OBST XB=332.0,336.0,435.0,439.0,380,521.963318 SURF_ID='surf1' /
&OBST XB=332.0,336.0,436.0,440.0,380,522.187988 SURF_ID='surf1' /
&OBST XB=332.0,336.0,437.0,441.0,380,522.187988 SURF_ID='surf1' /
&OBST XB=332.0,336.0,438.0,442.0,380,522.412598 SURF_ID='surf1' /
&OBST XB=332.0,336.0,439.0,443.0,380,522.412598 SURF_ID='surf1' /
&OBST XB=332.0,336.0,440.0,444.0,380,522.614929 SURF_ID='surf1' /
&OBST XB=332.0,336.0,441.0,445.0,380,522.614929 SURF_ID='surf1' /
&OBST XB=332.0,336.0,442.0,446.0,380,522.799316 SURF_ID='surf1' /
&OBST XB=332.0,336.0,443.0,447.0,380,522.799316 SURF_ID='surf1' /
&OBST XB=332.0,336.0,444.0,448.0,380,522.985413 SURF_ID='surf1' /
&OBST XB=332.0,336.0,445.0,449.0,380,522.985413 SURF_ID='surf1' /
&OBST XB=332.0,336.0,446.0,450.0,380,523.1503299999998 SURF_ID='surf1' /
&OBST XB=332.0,336.0,447.0,451.0,380,523.1503299999998 SURF_ID='surf1' /
&OBST XB=332.0,336.0,448.0,452.0,380,523.315125 SURF_ID='surf1' /
&OBST XB=332.0,336.0,449.0,453.0,380,523.315125 SURF_ID='surf1' /
&OBST XB=332.0,336.0,450.0,454.0,380,523.498291 SURF_ID='surf1' /
&OBST XB=332.0,336.0,451.0,455.0,380,523.498291 SURF_ID='surf1' /
&OBST XB=332.0,336.0,452.0,456.0,380,523.5517580000002 SURF_ID='surf1' /
&OBST XB=332.0,336.0,453.0,457.0,380,523.5517580000002 SURF_ID='surf1' /
&OBST XB=332.0,336.0,454.0,458.0,380,523.458374 SURF_ID='surf1' /
&OBST XB=332.0,336.0,455.0,459.0,380,523.458374 SURF_ID='surf1' /
&OBST XB=332.0,336.0,456.0,460.0,380,523.334167 SURF_ID='surf1' /
&OBST XB=332.0,336.0,457.0,461.0,380,523.334167 SURF_ID='surf1' /
&OBST XB=332.0,336.0,458.0,462.0,380,523.196167 SURF_ID='surf1' /
&OBST XB=332.0,336.0,459.0,463.0,380,523.196167 SURF_ID='surf1' /
&OBST XB=332.0,336.0,460.0,464.0,380,523.072021 SURF_ID='surf1' /
&OBST XB=332.0,336.0,461.0,465.0,380,523.072021 SURF_ID='surf1' /
&OBST XB=332.0,336.0,462.0,466.0,380,522.861023 SURF_ID='surf1' /
&OBST XB=332.0,336.0,463.0,467.0,380,522.861023 SURF_ID='surf1' /
&OBST XB=332.0,336.0,464.0,468.0,380,522.4792480000001 SURF_ID='surf1' /
&OBST XB=332.0,336.0,465.0,469.0,380,522.4792480000001 SURF_ID='surf1' /
&OBST XB=332.0,336.0,466.0,470.0,380,522.0274049999998 SURF_ID='surf1' /
&OBST XB=332.0,336.0,467.0,471.0,380,522.0274049999998 SURF_ID='surf1' /
&OBST XB=332.0,336.0,468.0,472.0,380,521.62085 SURF_ID='surf1' /
&OBST XB=332.0,336.0,469.0,473.0,380,521.62085 SURF_ID='surf1' /
&OBST XB=332.0,336.0,470.0,474.0,380,521.214539 SURF_ID='surf1' /
&OBST XB=332.0,336.0,471.0,475.0,380,521.214539 SURF_ID='surf1' /
&OBST XB=332.0,336.0,472.0,476.0,380,520.6992190000002 SURF_ID='surf1' /
&OBST XB=332.0,336.0,473.0,477.0,380,520.6992190000002 SURF_ID='surf1' /
&OBST XB=332.0,336.0,474.0,478.0,380,520.126648 SURF_ID='surf1' /
&OBST XB=332.0,336.0,475.0,479.0,380,520.126648 SURF_ID='surf1' /
&OBST XB=332.0,336.0,476.0,480.0,380,519.490051 SURF_ID='surf1' /
&OBST XB=332.0,336.0,477.0,481.0,380,519.490051 SURF_ID='surf1' /
&OBST XB=332.0,336.0,478.0,482.0,380,518.782593 SURF_ID='surf1' /
&OBST XB=332.0,336.0,479.0,483.0,380,518.782593 SURF_ID='surf1' /
&OBST XB=332.0,336.0,480.0,484.0,380,518.075562 SURF_ID='surf1' /
&OBST XB=332.0,336.0,481.0,485.0,380,518.075562 SURF_ID='surf1' /
&OBST XB=332.0,336.0,482.0,486.0,380,517.436035 SURF_ID='surf1' /
&OBST XB=332.0,336.0,483.0,487.0,380,517.436035 SURF_ID='surf1' /
&OBST XB=332.0,336.0,484.0,488.0,380,516.782593 SURF_ID='surf1' /
&OBST XB=332.0,336.0,485.0,489.0,380,516.782593 SURF_ID='surf1' /
&OBST XB=332.0,336.0,486.0,490.0,380,516.048218 SURF_ID='surf1' /
&OBST XB=332.0,336.0,487.0,491.0,380,516.048218 SURF_ID='surf1' /
&OBST XB=332.0,336.0,488.0,492.0,380,515.387329 SURF_ID='surf1' /
&OBST XB=332.0,336.0,489.0,493.0,380,515.387329 SURF_ID='surf1' /
&OBST XB=332.0,336.0,490.0,494.0,380,514.72644 SURF_ID='surf1' /
&OBST XB=332.0,336.0,491.0,495.0,380,514.72644 SURF_ID='surf1' /
&OBST XB=332.0,336.0,492.0,496.0,380,513.979065 SURF_ID='surf1' /
&OBST XB=332.0,336.0,493.0,497.0,380,513.979065 SURF_ID='surf1' /
&OBST XB=332.0,336.0,494.0,498.0,380,513.1611330000002 SURF_ID='surf1' /
&OBST XB=332.0,336.0,495.0,499.0,380,513.1611330000002 SURF_ID='surf1' /
&OBST XB=332.0,336.0,496.0,500.0,380,512.37323 SURF_ID='surf1' /
&OBST XB=332.0,336.0,497.0,501.0,380,512.37323 SURF_ID='surf1' /
&OBST XB=332.0,336.0,498.0,502.0,380,511.585358 SURF_ID='surf1' /
&OBST XB=332.0,336.0,499.0,503.0,380,511.585358 SURF_ID='surf1' /
&OBST XB=332.0,336.0,500.0,504.0,380,510.709808 SURF_ID='surf1' /
&OBST XB=332.0,336.0,501.0,505.0,380,510.709808 SURF_ID='surf1' /
&OBST XB=332.0,336.0,502.0,506.0,380,509.921936 SURF_ID='surf1' /
&OBST XB=332.0,336.0,503.0,507.0,380,509.921936 SURF_ID='surf1' /
&OBST XB=332.0,336.0,504.0,508.0,380,509.419647 SURF_ID='surf1' /
&OBST XB=332.0,336.0,505.0,509.0,380,509.419647 SURF_ID='surf1' /
&OBST XB=332.0,336.0,506.0,510.0,380,509.134583 SURF_ID='surf1' /
&OBST XB=332.0,336.0,507.0,511.0,380,509.134583 SURF_ID='surf1' /
&OBST XB=332.0,336.0,508.0,512.0,380,508.868866 SURF_ID='surf1' /
&OBST XB=332.0,336.0,509.0,513.0,380,508.868866 SURF_ID='surf1' /
&OBST XB=332.0,336.0,510.0,514.0,380,508.629791 SURF_ID='surf1' /
&OBST XB=332.0,336.0,511.0,515.0,380,508.629791 SURF_ID='surf1' /
&OBST XB=332.0,336.0,512.0,516.0,380,508.390686 SURF_ID='surf1' /
&OBST XB=332.0,336.0,513.0,517.0,380,508.390686 SURF_ID='surf1' /
&OBST XB=332.0,336.0,514.0,518.0,380,507.988281 SURF_ID='surf1' /
&OBST XB=332.0,336.0,515.0,519.0,380,507.988281 SURF_ID='surf1' /
&OBST XB=332.0,336.0,516.0,520.0,380,507.488068 SURF_ID='surf1' /
&OBST XB=332.0,336.0,517.0,521.0,380,507.488068 SURF_ID='surf1' /
&OBST XB=332.0,336.0,518.0,522.0,380,506.96908600000006 SURF_ID='surf1' /
&OBST XB=332.0,336.0,519.0,523.0,380,506.96908600000006 SURF_ID='surf1' /
&OBST XB=332.0,336.0,520.0,524.0,380,506.392395 SURF_ID='surf1' /
&OBST XB=332.0,336.0,521.0,525.0,380,506.392395 SURF_ID='surf1' /
&OBST XB=332.0,336.0,522.0,526.0,380,505.815674 SURF_ID='surf1' /
&OBST XB=332.0,336.0,523.0,527.0,380,505.815674 SURF_ID='surf1' /
&OBST XB=332.0,336.0,524.0,528.0,380,505.649292 SURF_ID='surf1' /
&OBST XB=332.0,336.0,525.0,529.0,380,505.649292 SURF_ID='surf1' /
&OBST XB=332.0,336.0,526.0,530.0,380,506.045105 SURF_ID='surf1' /
&OBST XB=332.0,336.0,527.0,531.0,380,506.045105 SURF_ID='surf1' /
&OBST XB=332.0,336.0,528.0,532.0,380,506.59320099999997 SURF_ID='surf1' /
&OBST XB=332.0,336.0,529.0,533.0,380,506.59320099999997 SURF_ID='surf1' /
&OBST XB=332.0,336.0,530.0,534.0,380,507.086609 SURF_ID='surf1' /
&OBST XB=332.0,336.0,531.0,535.0,380,507.086609 SURF_ID='surf1' /
&OBST XB=332.0,336.0,532.0,536.0,380,507.580078 SURF_ID='surf1' /
&OBST XB=332.0,336.0,533.0,537.0,380,507.580078 SURF_ID='surf1' /
&OBST XB=332.0,336.0,534.0,538.0,380,508.256897 SURF_ID='surf1' /
&OBST XB=332.0,336.0,535.0,539.0,380,508.256897 SURF_ID='surf1' /
&OBST XB=332.0,336.0,536.0,540.0,380,509.157562 SURF_ID='surf1' /
&OBST XB=332.0,336.0,537.0,541.0,380,509.157562 SURF_ID='surf1' /
&OBST XB=332.0,336.0,538.0,542.0,380,510.05438200000003 SURF_ID='surf1' /
&OBST XB=332.0,336.0,539.0,543.0,380,510.05438200000003 SURF_ID='surf1' /
&OBST XB=332.0,336.0,540.0,544.0,380,510.95178200000004 SURF_ID='surf1' /
&OBST XB=333.0,337.0,340.0,344.0,380,479.40554800000007 SURF_ID='surf1' /
&OBST XB=333.0,337.0,341.0,345.0,380,479.40554800000007 SURF_ID='surf1' /
&OBST XB=333.0,337.0,342.0,346.0,380,479.93109100000004 SURF_ID='surf1' /
&OBST XB=333.0,337.0,343.0,347.0,380,479.93109100000004 SURF_ID='surf1' /
&OBST XB=333.0,337.0,344.0,348.0,380,480.45666500000004 SURF_ID='surf1' /
&OBST XB=333.0,337.0,345.0,349.0,380,480.45666500000004 SURF_ID='surf1' /
&OBST XB=333.0,337.0,346.0,350.0,380,481.04040499999996 SURF_ID='surf1' /
&OBST XB=333.0,337.0,347.0,351.0,380,481.04040499999996 SURF_ID='surf1' /
&OBST XB=333.0,337.0,348.0,352.0,380,481.60424800000004 SURF_ID='surf1' /
&OBST XB=333.0,337.0,349.0,353.0,380,481.60424800000004 SURF_ID='surf1' /
&OBST XB=333.0,337.0,350.0,354.0,380,482.42117300000007 SURF_ID='surf1' /
&OBST XB=333.0,337.0,351.0,355.0,380,482.42117300000007 SURF_ID='surf1' /
&OBST XB=333.0,337.0,352.0,356.0,380,483.510681 SURF_ID='surf1' /
&OBST XB=333.0,337.0,353.0,357.0,380,483.510681 SURF_ID='surf1' /
&OBST XB=333.0,337.0,354.0,358.0,380,484.60022000000004 SURF_ID='surf1' /
&OBST XB=333.0,337.0,355.0,359.0,380,484.60022000000004 SURF_ID='surf1' /
&OBST XB=333.0,337.0,356.0,360.0,380,485.58062699999994 SURF_ID='surf1' /
&OBST XB=333.0,337.0,357.0,361.0,380,485.58062699999994 SURF_ID='surf1' /
&OBST XB=333.0,337.0,358.0,362.0,380,486.575378 SURF_ID='surf1' /
&OBST XB=333.0,337.0,359.0,363.0,380,486.575378 SURF_ID='surf1' /
&OBST XB=333.0,337.0,360.0,364.0,380,487.831421 SURF_ID='surf1' /
&OBST XB=333.0,337.0,361.0,365.0,380,487.831421 SURF_ID='surf1' /
&OBST XB=333.0,337.0,362.0,366.0,380,489.085754 SURF_ID='surf1' /
&OBST XB=333.0,337.0,363.0,367.0,380,489.085754 SURF_ID='surf1' /
&OBST XB=333.0,337.0,364.0,368.0,380,490.34011799999996 SURF_ID='surf1' /
&OBST XB=333.0,337.0,365.0,369.0,380,490.34011799999996 SURF_ID='surf1' /
&OBST XB=333.0,337.0,366.0,370.0,380,491.73400899999996 SURF_ID='surf1' /
&OBST XB=333.0,337.0,367.0,371.0,380,491.73400899999996 SURF_ID='surf1' /
&OBST XB=333.0,337.0,368.0,372.0,380,493.13226299999997 SURF_ID='surf1' /
&OBST XB=333.0,337.0,369.0,373.0,380,493.13226299999997 SURF_ID='surf1' /
&OBST XB=333.0,337.0,370.0,374.0,380,494.485229 SURF_ID='surf1' /
&OBST XB=333.0,337.0,371.0,375.0,380,494.485229 SURF_ID='surf1' /
&OBST XB=333.0,337.0,372.0,376.0,380,495.95169100000004 SURF_ID='surf1' /
&OBST XB=333.0,337.0,373.0,377.0,380,495.95169100000004 SURF_ID='surf1' /
&OBST XB=333.0,337.0,374.0,378.0,380,497.581299 SURF_ID='surf1' /
&OBST XB=333.0,337.0,375.0,379.0,380,497.581299 SURF_ID='surf1' /
&OBST XB=333.0,337.0,376.0,380.0,380,499.047821 SURF_ID='surf1' /
&OBST XB=333.0,337.0,377.0,381.0,380,499.047821 SURF_ID='surf1' /
&OBST XB=333.0,337.0,378.0,382.0,380,500.51428200000004 SURF_ID='surf1' /
&OBST XB=333.0,337.0,379.0,383.0,380,500.51428200000004 SURF_ID='surf1' /
&OBST XB=333.0,337.0,380.0,384.0,380,501.930267 SURF_ID='surf1' /
&OBST XB=333.0,337.0,381.0,385.0,380,501.930267 SURF_ID='surf1' /
&OBST XB=333.0,337.0,382.0,386.0,380,503.07669100000004 SURF_ID='surf1' /
&OBST XB=333.0,337.0,383.0,387.0,380,503.07669100000004 SURF_ID='surf1' /
&OBST XB=333.0,337.0,384.0,388.0,380,504.05810499999995 SURF_ID='surf1' /
&OBST XB=333.0,337.0,385.0,389.0,380,504.05810499999995 SURF_ID='surf1' /
&OBST XB=333.0,337.0,386.0,390.0,380,505.03945899999997 SURF_ID='surf1' /
&OBST XB=333.0,337.0,387.0,391.0,380,505.03945899999997 SURF_ID='surf1' /
&OBST XB=333.0,337.0,388.0,392.0,380,506.130005 SURF_ID='surf1' /
&OBST XB=333.0,337.0,389.0,393.0,380,506.130005 SURF_ID='surf1' /
&OBST XB=333.0,337.0,390.0,394.0,380,507.077454 SURF_ID='surf1' /
&OBST XB=333.0,337.0,391.0,395.0,380,507.077454 SURF_ID='surf1' /
&OBST XB=333.0,337.0,392.0,396.0,380,507.960968 SURF_ID='surf1' /
&OBST XB=333.0,337.0,393.0,397.0,380,507.960968 SURF_ID='surf1' /
&OBST XB=333.0,337.0,394.0,398.0,380,508.92425499999996 SURF_ID='surf1' /
&OBST XB=333.0,337.0,395.0,399.0,380,508.92425499999996 SURF_ID='surf1' /
&OBST XB=333.0,337.0,396.0,400.0,380,509.888092 SURF_ID='surf1' /
&OBST XB=333.0,337.0,397.0,401.0,380,509.888092 SURF_ID='surf1' /
&OBST XB=333.0,337.0,398.0,402.0,380,510.75543200000004 SURF_ID='surf1' /
&OBST XB=333.0,337.0,399.0,403.0,380,510.75543200000004 SURF_ID='surf1' /
&OBST XB=333.0,337.0,400.0,404.0,380,511.76800499999996 SURF_ID='surf1' /
&OBST XB=333.0,337.0,401.0,405.0,380,511.76800499999996 SURF_ID='surf1' /
&OBST XB=333.0,337.0,402.0,406.0,380,513.17804 SURF_ID='surf1' /
&OBST XB=333.0,337.0,403.0,407.0,380,513.17804 SURF_ID='surf1' /
&OBST XB=333.0,337.0,404.0,408.0,380,514.5878299999998 SURF_ID='surf1' /
&OBST XB=333.0,337.0,405.0,409.0,380,514.5878299999998 SURF_ID='surf1' /
&OBST XB=333.0,337.0,406.0,410.0,380,515.998596 SURF_ID='surf1' /
&OBST XB=333.0,337.0,407.0,411.0,380,515.998596 SURF_ID='surf1' /
&OBST XB=333.0,337.0,408.0,412.0,380,517.566284 SURF_ID='surf1' /
&OBST XB=333.0,337.0,409.0,413.0,380,517.566284 SURF_ID='surf1' /
&OBST XB=333.0,337.0,410.0,414.0,380,518.880493 SURF_ID='surf1' /
&OBST XB=333.0,337.0,411.0,415.0,380,518.880493 SURF_ID='surf1' /
&OBST XB=333.0,337.0,412.0,416.0,380,519.5626219999998 SURF_ID='surf1' /
&OBST XB=333.0,337.0,413.0,417.0,380,519.5626219999998 SURF_ID='surf1' /
&OBST XB=333.0,337.0,414.0,418.0,380,519.903931 SURF_ID='surf1' /
&OBST XB=333.0,337.0,415.0,419.0,380,519.903931 SURF_ID='surf1' /
&OBST XB=333.0,337.0,416.0,420.0,380,520.2830809999998 SURF_ID='surf1' /
&OBST XB=333.0,337.0,417.0,421.0,380,520.2830809999998 SURF_ID='surf1' /
&OBST XB=333.0,337.0,418.0,422.0,380,520.624573 SURF_ID='surf1' /
&OBST XB=333.0,337.0,419.0,423.0,380,520.624573 SURF_ID='surf1' /
&OBST XB=333.0,337.0,420.0,424.0,380,520.943298 SURF_ID='surf1' /
&OBST XB=333.0,337.0,421.0,425.0,380,520.943298 SURF_ID='surf1' /
&OBST XB=333.0,337.0,422.0,426.0,380,521.167297 SURF_ID='surf1' /
&OBST XB=333.0,337.0,423.0,427.0,380,521.167297 SURF_ID='surf1' /
&OBST XB=333.0,337.0,424.0,428.0,380,521.281433 SURF_ID='surf1' /
&OBST XB=333.0,337.0,425.0,429.0,380,521.281433 SURF_ID='surf1' /
&OBST XB=333.0,337.0,426.0,430.0,380,521.384094 SURF_ID='surf1' /
&OBST XB=333.0,337.0,427.0,431.0,380,521.384094 SURF_ID='surf1' /
&OBST XB=333.0,337.0,428.0,432.0,380,521.4868769999998 SURF_ID='surf1' /
&OBST XB=333.0,337.0,429.0,433.0,380,521.4868769999998 SURF_ID='surf1' /
&OBST XB=333.0,337.0,430.0,434.0,380,521.6075440000002 SURF_ID='surf1' /
&OBST XB=333.0,337.0,431.0,435.0,380,521.6075440000002 SURF_ID='surf1' /
&OBST XB=333.0,337.0,432.0,436.0,380,521.760986 SURF_ID='surf1' /
&OBST XB=333.0,337.0,433.0,437.0,380,521.760986 SURF_ID='surf1' /
&OBST XB=333.0,337.0,434.0,438.0,380,521.963318 SURF_ID='surf1' /
&OBST XB=333.0,337.0,435.0,439.0,380,521.963318 SURF_ID='surf1' /
&OBST XB=333.0,337.0,436.0,440.0,380,522.187988 SURF_ID='surf1' /
&OBST XB=333.0,337.0,437.0,441.0,380,522.187988 SURF_ID='surf1' /
&OBST XB=333.0,337.0,438.0,442.0,380,522.412598 SURF_ID='surf1' /
&OBST XB=333.0,337.0,439.0,443.0,380,522.412598 SURF_ID='surf1' /
&OBST XB=333.0,337.0,440.0,444.0,380,522.614929 SURF_ID='surf1' /
&OBST XB=333.0,337.0,441.0,445.0,380,522.614929 SURF_ID='surf1' /
&OBST XB=333.0,337.0,442.0,446.0,380,522.799316 SURF_ID='surf1' /
&OBST XB=333.0,337.0,443.0,447.0,380,522.799316 SURF_ID='surf1' /
&OBST XB=333.0,337.0,444.0,448.0,380,522.985413 SURF_ID='surf1' /
&OBST XB=333.0,337.0,445.0,449.0,380,522.985413 SURF_ID='surf1' /
&OBST XB=333.0,337.0,446.0,450.0,380,523.1503299999998 SURF_ID='surf1' /
&OBST XB=333.0,337.0,447.0,451.0,380,523.1503299999998 SURF_ID='surf1' /
&OBST XB=333.0,337.0,448.0,452.0,380,523.315125 SURF_ID='surf1' /
&OBST XB=333.0,337.0,449.0,453.0,380,523.315125 SURF_ID='surf1' /
&OBST XB=333.0,337.0,450.0,454.0,380,523.498291 SURF_ID='surf1' /
&OBST XB=333.0,337.0,451.0,455.0,380,523.498291 SURF_ID='surf1' /
&OBST XB=333.0,337.0,452.0,456.0,380,523.5517580000002 SURF_ID='surf1' /
&OBST XB=333.0,337.0,453.0,457.0,380,523.5517580000002 SURF_ID='surf1' /
&OBST XB=333.0,337.0,454.0,458.0,380,523.458374 SURF_ID='surf1' /
&OBST XB=333.0,337.0,455.0,459.0,380,523.458374 SURF_ID='surf1' /
&OBST XB=333.0,337.0,456.0,460.0,380,523.334167 SURF_ID='surf1' /
&OBST XB=333.0,337.0,457.0,461.0,380,523.334167 SURF_ID='surf1' /
&OBST XB=333.0,337.0,458.0,462.0,380,523.196167 SURF_ID='surf1' /
&OBST XB=333.0,337.0,459.0,463.0,380,523.196167 SURF_ID='surf1' /
&OBST XB=333.0,337.0,460.0,464.0,380,523.072021 SURF_ID='surf1' /
&OBST XB=333.0,337.0,461.0,465.0,380,523.072021 SURF_ID='surf1' /
&OBST XB=333.0,337.0,462.0,466.0,380,522.861023 SURF_ID='surf1' /
&OBST XB=333.0,337.0,463.0,467.0,380,522.861023 SURF_ID='surf1' /
&OBST XB=333.0,337.0,464.0,468.0,380,522.4792480000001 SURF_ID='surf1' /
&OBST XB=333.0,337.0,465.0,469.0,380,522.4792480000001 SURF_ID='surf1' /
&OBST XB=333.0,337.0,466.0,470.0,380,522.0274049999998 SURF_ID='surf1' /
&OBST XB=333.0,337.0,467.0,471.0,380,522.0274049999998 SURF_ID='surf1' /
&OBST XB=333.0,337.0,468.0,472.0,380,521.62085 SURF_ID='surf1' /
&OBST XB=333.0,337.0,469.0,473.0,380,521.62085 SURF_ID='surf1' /
&OBST XB=333.0,337.0,470.0,474.0,380,521.214539 SURF_ID='surf1' /
&OBST XB=333.0,337.0,471.0,475.0,380,521.214539 SURF_ID='surf1' /
&OBST XB=333.0,337.0,472.0,476.0,380,520.6992190000002 SURF_ID='surf1' /
&OBST XB=333.0,337.0,473.0,477.0,380,520.6992190000002 SURF_ID='surf1' /
&OBST XB=333.0,337.0,474.0,478.0,380,520.126648 SURF_ID='surf1' /
&OBST XB=333.0,337.0,475.0,479.0,380,520.126648 SURF_ID='surf1' /
&OBST XB=333.0,337.0,476.0,480.0,380,519.490051 SURF_ID='surf1' /
&OBST XB=333.0,337.0,477.0,481.0,380,519.490051 SURF_ID='surf1' /
&OBST XB=333.0,337.0,478.0,482.0,380,518.782593 SURF_ID='surf1' /
&OBST XB=333.0,337.0,479.0,483.0,380,518.782593 SURF_ID='surf1' /
&OBST XB=333.0,337.0,480.0,484.0,380,518.075562 SURF_ID='surf1' /
&OBST XB=333.0,337.0,481.0,485.0,380,518.075562 SURF_ID='surf1' /
&OBST XB=333.0,337.0,482.0,486.0,380,517.436035 SURF_ID='surf1' /
&OBST XB=333.0,337.0,483.0,487.0,380,517.436035 SURF_ID='surf1' /
&OBST XB=333.0,337.0,484.0,488.0,380,516.782593 SURF_ID='surf1' /
&OBST XB=333.0,337.0,485.0,489.0,380,516.782593 SURF_ID='surf1' /
&OBST XB=333.0,337.0,486.0,490.0,380,516.048218 SURF_ID='surf1' /
&OBST XB=333.0,337.0,487.0,491.0,380,516.048218 SURF_ID='surf1' /
&OBST XB=333.0,337.0,488.0,492.0,380,515.387329 SURF_ID='surf1' /
&OBST XB=333.0,337.0,489.0,493.0,380,515.387329 SURF_ID='surf1' /
&OBST XB=333.0,337.0,490.0,494.0,380,514.72644 SURF_ID='surf1' /
&OBST XB=333.0,337.0,491.0,495.0,380,514.72644 SURF_ID='surf1' /
&OBST XB=333.0,337.0,492.0,496.0,380,513.979065 SURF_ID='surf1' /
&OBST XB=333.0,337.0,493.0,497.0,380,513.979065 SURF_ID='surf1' /
&OBST XB=333.0,337.0,494.0,498.0,380,513.1611330000002 SURF_ID='surf1' /
&OBST XB=333.0,337.0,495.0,499.0,380,513.1611330000002 SURF_ID='surf1' /
&OBST XB=333.0,337.0,496.0,500.0,380,512.37323 SURF_ID='surf1' /
&OBST XB=333.0,337.0,497.0,501.0,380,512.37323 SURF_ID='surf1' /
&OBST XB=333.0,337.0,498.0,502.0,380,511.585358 SURF_ID='surf1' /
&OBST XB=333.0,337.0,499.0,503.0,380,511.585358 SURF_ID='surf1' /
&OBST XB=333.0,337.0,500.0,504.0,380,510.709808 SURF_ID='surf1' /
&OBST XB=333.0,337.0,501.0,505.0,380,510.709808 SURF_ID='surf1' /
&OBST XB=333.0,337.0,502.0,506.0,380,509.921936 SURF_ID='surf1' /
&OBST XB=333.0,337.0,503.0,507.0,380,509.921936 SURF_ID='surf1' /
&OBST XB=333.0,337.0,504.0,508.0,380,509.419647 SURF_ID='surf1' /
&OBST XB=333.0,337.0,505.0,509.0,380,509.419647 SURF_ID='surf1' /
&OBST XB=333.0,337.0,506.0,510.0,380,509.134583 SURF_ID='surf1' /
&OBST XB=333.0,337.0,507.0,511.0,380,509.134583 SURF_ID='surf1' /
&OBST XB=333.0,337.0,508.0,512.0,380,508.868866 SURF_ID='surf1' /
&OBST XB=333.0,337.0,509.0,513.0,380,508.868866 SURF_ID='surf1' /
&OBST XB=333.0,337.0,510.0,514.0,380,508.629791 SURF_ID='surf1' /
&OBST XB=333.0,337.0,511.0,515.0,380,508.629791 SURF_ID='surf1' /
&OBST XB=333.0,337.0,512.0,516.0,380,508.390686 SURF_ID='surf1' /
&OBST XB=333.0,337.0,513.0,517.0,380,508.390686 SURF_ID='surf1' /
&OBST XB=333.0,337.0,514.0,518.0,380,507.988281 SURF_ID='surf1' /
&OBST XB=333.0,337.0,515.0,519.0,380,507.988281 SURF_ID='surf1' /
&OBST XB=333.0,337.0,516.0,520.0,380,507.488068 SURF_ID='surf1' /
&OBST XB=333.0,337.0,517.0,521.0,380,507.488068 SURF_ID='surf1' /
&OBST XB=333.0,337.0,518.0,522.0,380,506.96908600000006 SURF_ID='surf1' /
&OBST XB=333.0,337.0,519.0,523.0,380,506.96908600000006 SURF_ID='surf1' /
&OBST XB=333.0,337.0,520.0,524.0,380,506.392395 SURF_ID='surf1' /
&OBST XB=333.0,337.0,521.0,525.0,380,506.392395 SURF_ID='surf1' /
&OBST XB=333.0,337.0,522.0,526.0,380,505.815674 SURF_ID='surf1' /
&OBST XB=333.0,337.0,523.0,527.0,380,505.815674 SURF_ID='surf1' /
&OBST XB=333.0,337.0,524.0,528.0,380,505.649292 SURF_ID='surf1' /
&OBST XB=333.0,337.0,525.0,529.0,380,505.649292 SURF_ID='surf1' /
&OBST XB=333.0,337.0,526.0,530.0,380,506.045105 SURF_ID='surf1' /
&OBST XB=333.0,337.0,527.0,531.0,380,506.045105 SURF_ID='surf1' /
&OBST XB=333.0,337.0,528.0,532.0,380,506.59320099999997 SURF_ID='surf1' /
&OBST XB=333.0,337.0,529.0,533.0,380,506.59320099999997 SURF_ID='surf1' /
&OBST XB=333.0,337.0,530.0,534.0,380,507.086609 SURF_ID='surf1' /
&OBST XB=333.0,337.0,531.0,535.0,380,507.086609 SURF_ID='surf1' /
&OBST XB=333.0,337.0,532.0,536.0,380,507.580078 SURF_ID='surf1' /