&HEAD CHID='Whole', TITLE='Simulation of Chimney Tops fire' /

&MESH IJK=85,125,30, XB=360,530.0,200,450.0,380,440.0, MULT_ID='mesh' / 
&MULT ID='mesh', DX=170.0, DY=250.0, DZ=60.0, I_LOWER=0, I_UPPER=1, J_LOWER=0, J_UPPER=1, K_UPPER=3 /  

&MISC TMPA=30., TERRAIN_CASE=.TRUE., TERRAIN_IMAGE='Region1.png', VERBOSE=.TRUE., RESTART=.FALSE., PROJECTION=.TRUE.  /
&TIME T_BEGIN = 0.0, T_END = 480.0 / 

&DUMP NFRAMES=960, DT_PART=100., CFL_FILE=.TRUE., DT_PL3D=480.0, UVW_TIMER(1)=480.0 /  
&WIND DIRECTION=135., SPEED=5., SPONGE_CELLS=0, STRATIFICATION=.FALSE. /

&SLCF XB=360,700,200,700,380,620, QUANTITY='HRRPUV', CELL_CENTERED=.TRUE. /  

&RADI KAPPA0=0 / 

&SURF ID='FIRE604256', HRRPUA=3500., COLOR='ORANGE', RAMP_Q='fire' /
&SURF ID='FIRE604258', HRRPUA=3500., COLOR='ORANGE', RAMP_Q='fire' /
&SURF ID='FIRE604260', HRRPUA=3500., COLOR='ORANGE', RAMP_Q='fire' /
&SURF ID='FIRE604262', HRRPUA=3500., COLOR='ORANGE', RAMP_Q='fire' /
&SURF ID='FIRE604264', HRRPUA=3500., COLOR='ORANGE', RAMP_Q='fire' /
&SURF ID='FIRE606256', HRRPUA=3500., COLOR='ORANGE', RAMP_Q='fire' /
&SURF ID='FIRE606258', HRRPUA=3500., COLOR='ORANGE', RAMP_Q='fire' /
&SURF ID='FIRE606260', HRRPUA=3500., COLOR='ORANGE', RAMP_Q='fire' /
&SURF ID='FIRE606262', HRRPUA=3500., COLOR='ORANGE', RAMP_Q='fire' /
&SURF ID='FIRE606264', HRRPUA=3500., COLOR='ORANGE', RAMP_Q='fire' /
&SURF ID='FIRE608256', HRRPUA=3500., COLOR='ORANGE', RAMP_Q='fire' /
&SURF ID='FIRE608258', HRRPUA=3500., COLOR='ORANGE', RAMP_Q='fire' /
&SURF ID='FIRE608260', HRRPUA=3500., COLOR='ORANGE', RAMP_Q='fire' /
&SURF ID='FIRE608262', HRRPUA=3500., COLOR='ORANGE', RAMP_Q='fire' /
&SURF ID='FIRE608264', HRRPUA=3500., COLOR='ORANGE', RAMP_Q='fire' /
&SURF ID='FIRE610256', HRRPUA=3500., COLOR='ORANGE', RAMP_Q='fire' /
&SURF ID='FIRE610258', HRRPUA=3500., COLOR='ORANGE', RAMP_Q='fire' /
&SURF ID='FIRE610260', HRRPUA=3500., COLOR='ORANGE', RAMP_Q='fire' /
&SURF ID='FIRE610262', HRRPUA=3500., COLOR='ORANGE', RAMP_Q='fire' /
&SURF ID='FIRE610264', HRRPUA=3500., COLOR='ORANGE', RAMP_Q='fire' /
&SURF ID='FIRE612256', HRRPUA=3500., COLOR='ORANGE', RAMP_Q='fire' /
&SURF ID='FIRE612258', HRRPUA=3500., COLOR='ORANGE', RAMP_Q='fire' /
&SURF ID='FIRE612260', HRRPUA=3500., COLOR='ORANGE', RAMP_Q='fire' /
&SURF ID='FIRE612262', HRRPUA=3500., COLOR='ORANGE', RAMP_Q='fire' /
&SURF ID='FIRE612264', HRRPUA=3500., COLOR='ORANGE', RAMP_Q='fire' /

&RAMP ID='fire', T= 0., F=0. /
&RAMP ID='fire', T= 1., F=1. /
&RAMP ID='fire', T= 10., F=1. /
&RAMP ID='fire', T= 11., F=0. /

&VENT MB='XMIN', SURF_ID='OPEN' /  
&VENT MB='XMAX', SURF_ID='OPEN' /  
&VENT MB='YMIN', SURF_ID='OPEN' /  
&VENT MB='YMAX', SURF_ID='OPEN' /  
&VENT MB='ZMAX', SURF_ID='OPEN' /  

&REAC FUEL='CELLULOSE', C=6, H=10, O=5, SOOT_YIELD=0.005 / 

&SPEC ID='WATER VAPOR' / 

&SURF ID                        = 'grass' 
      MATL_ID(1,1:2)            = 'GENERIC VEGETATION','MOISTURE'
      MATL_MASS_FRACTION(1,1:2) = 0.937,0.063
      THICKNESS                 = 0.0002
      LENGTH                    = 0.21
      HEAT_TRANSFER_COEFFICIENT = 30.
      GEOMETRY                  = 'CYLINDRICAL' /

&SURF ID                        = 'needles' 
      MATL_ID(1,1:2)            = 'GENERIC VEGETATION','MOISTURE'
      MATL_MASS_FRACTION(1,1:2) = 0.95,0.05
      THICKNESS                 = 0.02
      LENGTH                    = 0.21
      HEAT_TRANSFER_COEFFICIENT = 30.
      GEOMETRY                  = 'CYLINDRICAL' /

&MATL ID = 'GENERIC VEGETATION' 
      DENSITY = 500.
      CONDUCTIVITY = 0.1
      SPECIFIC_HEAT= 1.5
      REFERENCE_TEMPERATURE = 200
      PYROLYSIS_RANGE = 30.
      NU_MATL = 0.2
      NU_SPEC = 0.8 
      SPEC_ID = 'CELLULOSE'
      HEAT_OF_COMBUSTION = 15600.
      HEAT_OF_REACTION = 418.
      MATL_ID  = 'CHAR' /

&MATL ID = 'MOISTURE' 
      DENSITY = 1000.
      CONDUCTIVITY = 0.1
      SPECIFIC_HEAT= 4.184
      REFERENCE_TEMPERATURE = 100.
      PYROLYSIS_RANGE = 10.
      NU_SPEC = 1.0 
      SPEC_ID = 'WATER VAPOR'
      HEAT_OF_REACTION = 2500./

&MATL ID = 'CHAR'
      DENSITY  = 100.
      CONDUCTIVITY = 0.1 
      SPECIFIC_HEAT = 1.0 / 

&MATL ID='DIRT'
      CONDUCTIVITY = 0.25
      SPECIFIC_HEAT = 2.
     DENSITY = 1300. /

&PART ID='foliage', DRAG_COEFFICIENT=1.0, SURF_ID='needles', SAMPLING_FACTOR=5,
      QUANTITIES='PARTICLE TEMPERATURE','PARTICLE MASS','PARTICLE DIAMETER', STATIC=.TRUE., COLOR='GREEN' / 

&PART ID='grass', DRAG_COEFFICIENT=1.0, SURF_ID='grass', SAMPLING_FACTOR=958,
      QUANTITIES='PARTICLE TEMPERATURE','PARTICLE MASS','PARTICLE DIAMETER', STATIC=.TRUE., COLOR='BROWN' /

&SURF ID = 'surf1', RGB = 122,117,48, MATL_ID='DIRT', THICKNESS=0.2, PART_ID='grass', PARTICLE_SURFACE_DENSITY=1.0 / 
&SURF ID = 'surf2', RGB = 0,100,0, MATL_ID='DIRT', THICKNESS=0.2 / 

&OBST XB=604.0,606.0,256.0,258.0,380,395.949097 SURF_IDS='FIRE604256','surf1' /
&OBST XB=604.0,606.0,258.0,260.0,380,396.087036 SURF_IDS='FIRE604258','surf1' /
&OBST XB=604.0,606.0,260.0,262.0,380,396.241058 SURF_IDS='FIRE604260','surf1' /
&OBST XB=604.0,606.0,262.0,264.0,380,396.395172 SURF_IDS='FIRE604262','surf1' /
&OBST XB=604.0,606.0,264.0,266.0,380,396.533875 SURF_IDS='FIRE604264','surf1' /
&OBST XB=606.0,608.0,256.0,258.0,380,395.833801 SURF_IDS='FIRE606256','surf1' /
&OBST XB=606.0,608.0,258.0,260.0,380,395.974457 SURF_IDS='FIRE606258','surf1' /
&OBST XB=606.0,608.0,260.0,262.0,380,396.13208 SURF_IDS='FIRE606260','surf1' /
&OBST XB=606.0,608.0,262.0,264.0,380,396.289795 SURF_IDS='FIRE606262','surf1' /
&OBST XB=606.0,608.0,264.0,266.0,380,396.431732 SURF_IDS='FIRE606264','surf1' /
&OBST XB=608.0,610.0,256.0,258.0,380,395.723541 SURF_IDS='FIRE608256','surf1' /
&OBST XB=608.0,610.0,258.0,260.0,380,395.86721800000004 SURF_IDS='FIRE608258','surf1' /
&OBST XB=608.0,610.0,260.0,262.0,380,396.028534 SURF_IDS='FIRE608260','surf1' /
&OBST XB=608.0,610.0,262.0,264.0,380,396.189972 SURF_IDS='FIRE608262','surf1' /
&OBST XB=608.0,610.0,264.0,266.0,380,396.335266 SURF_IDS='FIRE608264','surf1' /
&OBST XB=610.0,612.0,256.0,258.0,380,395.619263 SURF_IDS='FIRE610256','surf1' /
&OBST XB=610.0,612.0,258.0,260.0,380,395.76635699999997 SURF_IDS='FIRE610258','surf1' /
&OBST XB=610.0,612.0,260.0,262.0,380,395.931519 SURF_IDS='FIRE610260','surf1' /
&OBST XB=610.0,612.0,262.0,264.0,380,396.096802 SURF_IDS='FIRE610262','surf1' /
&OBST XB=610.0,612.0,264.0,266.0,380,396.245575 SURF_IDS='FIRE610264','surf1' /
&OBST XB=612.0,614.0,256.0,258.0,380,395.516052 SURF_IDS='FIRE612256','surf1' /
&OBST XB=612.0,614.0,258.0,260.0,380,395.666565 SURF_IDS='FIRE612258','surf1' /
&OBST XB=612.0,614.0,260.0,262.0,380,395.835632 SURF_IDS='FIRE612260','surf1' /
&OBST XB=612.0,614.0,262.0,264.0,380,396.004791 SURF_IDS='FIRE612262','surf1' /
&OBST XB=612.0,614.0,264.0,266.0,380,396.15704300000004 SURF_IDS='FIRE612264','surf1' /
&OBST XB=360.0,362.0,200.0,202.0,380,424.311707 SURF_ID='surf1' /
&OBST XB=360.0,362.0,202.0,204.0,380,425.473938 SURF_ID='surf1' /
&OBST XB=360.0,362.0,204.0,206.0,380,426.73095700000016 SURF_ID='surf1' /
&OBST XB=360.0,362.0,206.0,208.0,380,427.87939500000016 SURF_ID='surf1' /
&OBST XB=360.0,362.0,208.0,210.0,380,428.845612 SURF_ID='surf1' /
&OBST XB=360.0,362.0,210.0,212.0,380,429.81185899999997 SURF_ID='surf1' /
&OBST XB=360.0,362.0,212.0,214.0,380,430.884949 SURF_ID='surf1' /
&OBST XB=360.0,362.0,214.0,216.0,380,431.86370800000003 SURF_ID='surf1' /
&OBST XB=360.0,362.0,216.0,218.0,380,433.0564269999999 SURF_ID='surf1' /
&OBST XB=360.0,362.0,218.0,220.0,380,434.556824 SURF_ID='surf1' /
&OBST XB=360.0,362.0,220.0,222.0,380,436.05719000000005 SURF_ID='surf1' /
&OBST XB=360.0,362.0,222.0,224.0,380,437.40740999999997 SURF_ID='surf1' /
&OBST XB=360.0,362.0,224.0,226.0,380,438.75705 SURF_ID='surf1' /
&OBST XB=360.0,362.0,226.0,228.0,380,440.30706799999996 SURF_ID='surf1' /
&OBST XB=360.0,362.0,228.0,230.0,380,441.74755899999997 SURF_ID='surf1' /
&OBST XB=360.0,362.0,230.0,232.0,380,443.18810999999994 SURF_ID='surf1' /
&OBST XB=360.0,362.0,232.0,234.0,380,444.788879 SURF_ID='surf1' /
&OBST XB=360.0,362.0,234.0,236.0,380,446.388733 SURF_ID='surf1' /
&OBST XB=360.0,362.0,236.0,238.0,380,447.759705 SURF_ID='surf1' /
&OBST XB=360.0,362.0,238.0,240.0,380,449.04055800000003 SURF_ID='surf1' /
&OBST XB=360.0,362.0,240.0,242.0,380,450.45910599999996 SURF_ID='surf1' /
&OBST XB=360.0,362.0,242.0,244.0,380,451.735657 SURF_ID='surf1' /
&OBST XB=360.0,362.0,244.0,246.0,380,453.012146 SURF_ID='surf1' /
&OBST XB=360.0,362.0,246.0,248.0,380,454.222351 SURF_ID='surf1' /
&OBST XB=360.0,362.0,248.0,250.0,380,455.13510099999996 SURF_ID='surf1' /
&OBST XB=360.0,362.0,250.0,252.0,380,455.876404 SURF_ID='surf1' /
&OBST XB=360.0,362.0,252.0,254.0,380,456.61773700000003 SURF_ID='surf1' /
&OBST XB=360.0,362.0,254.0,256.0,380,457.441498 SURF_ID='surf1' /
&OBST XB=360.0,362.0,256.0,258.0,380,458.157959 SURF_ID='surf1' /
&OBST XB=360.0,362.0,258.0,260.0,380,458.818146 SURF_ID='surf1' /
&OBST XB=360.0,362.0,260.0,262.0,380,459.52978499999995 SURF_ID='surf1' /
&OBST XB=360.0,362.0,262.0,264.0,380,460.241821 SURF_ID='surf1' /
&OBST XB=360.0,362.0,264.0,266.0,380,460.88250700000003 SURF_ID='surf1' /
&OBST XB=360.0,362.0,266.0,268.0,380,461.47033700000003 SURF_ID='surf1' /
&OBST XB=360.0,362.0,268.0,270.0,380,461.99343899999997 SURF_ID='surf1' /
&OBST XB=360.0,362.0,270.0,272.0,380,462.389587 SURF_ID='surf1' /
&OBST XB=360.0,362.0,272.0,274.0,380,462.78598 SURF_ID='surf1' /
&OBST XB=360.0,362.0,274.0,276.0,380,463.226471 SURF_ID='surf1' /
&OBST XB=360.0,362.0,276.0,278.0,380,463.603729 SURF_ID='surf1' /
&OBST XB=360.0,362.0,278.0,280.0,380,463.785858 SURF_ID='surf1' /
&OBST XB=360.0,362.0,280.0,282.0,380,463.84249900000003 SURF_ID='surf1' /
&OBST XB=360.0,362.0,282.0,284.0,380,463.905457 SURF_ID='surf1' /
&OBST XB=360.0,362.0,284.0,286.0,380,463.96218899999997 SURF_ID='surf1' /
&OBST XB=360.0,362.0,286.0,288.0,380,464.00946 SURF_ID='surf1' /
&OBST XB=360.0,362.0,288.0,290.0,380,463.946228 SURF_ID='surf1' /
&OBST XB=360.0,362.0,290.0,292.0,380,463.77563499999997 SURF_ID='surf1' /
&OBST XB=360.0,362.0,292.0,294.0,380,463.622192 SURF_ID='surf1' /
&OBST XB=360.0,362.0,294.0,296.0,380,463.468628 SURF_ID='surf1' /
&OBST XB=360.0,362.0,296.0,298.0,380,463.29739400000005 SURF_ID='surf1' /
&OBST XB=360.0,362.0,298.0,300.0,380,463.12619000000007 SURF_ID='surf1' /
&OBST XB=360.0,362.0,300.0,302.0,380,462.93414299999995 SURF_ID='surf1' /
&OBST XB=360.0,362.0,302.0,304.0,380,462.720825 SURF_ID='surf1' /
&OBST XB=360.0,362.0,304.0,306.0,380,462.507568 SURF_ID='surf1' /
&OBST XB=360.0,362.0,306.0,308.0,380,462.315521 SURF_ID='surf1' /
&OBST XB=360.0,362.0,308.0,310.0,380,462.043579 SURF_ID='surf1' /
&OBST XB=360.0,362.0,310.0,312.0,380,461.646576 SURF_ID='surf1' /
&OBST XB=360.0,362.0,312.0,314.0,380,461.22613499999994 SURF_ID='surf1' /
&OBST XB=360.0,362.0,314.0,316.0,380,460.84783899999996 SURF_ID='surf1' /
&OBST XB=360.0,362.0,316.0,318.0,380,460.46929900000003 SURF_ID='surf1' /
&OBST XB=360.0,362.0,318.0,320.0,380,460.53182999999996 SURF_ID='surf1' /
&OBST XB=360.0,362.0,320.0,322.0,380,461.17559800000004 SURF_ID='surf1' /
&OBST XB=360.0,362.0,322.0,324.0,380,462.01025400000003 SURF_ID='surf1' /
&OBST XB=360.0,362.0,324.0,326.0,380,462.93719500000003 SURF_ID='surf1' /
&OBST XB=360.0,362.0,326.0,328.0,380,463.864166 SURF_ID='surf1' /
&OBST XB=360.0,362.0,328.0,330.0,380,464.85790999999995 SURF_ID='surf1' /
&OBST XB=360.0,362.0,330.0,332.0,380,466.196014 SURF_ID='surf1' /
&OBST XB=360.0,362.0,332.0,334.0,380,467.81213399999996 SURF_ID='surf1' /
&OBST XB=360.0,362.0,334.0,336.0,380,469.26651 SURF_ID='surf1' /
&OBST XB=360.0,362.0,336.0,338.0,380,470.71990999999997 SURF_ID='surf1' /
&OBST XB=360.0,362.0,338.0,340.0,380,472.329254 SURF_ID='surf1' /
&OBST XB=360.0,362.0,340.0,342.0,380,473.92523200000005 SURF_ID='surf1' /
&OBST XB=360.0,362.0,342.0,344.0,380,475.353699 SURF_ID='surf1' /
&OBST XB=360.0,362.0,344.0,346.0,380,476.782227 SURF_ID='surf1' /
&OBST XB=360.0,362.0,346.0,348.0,380,478.368713 SURF_ID='surf1' /
&OBST XB=360.0,362.0,348.0,350.0,380,479.788696 SURF_ID='surf1' /
&OBST XB=360.0,362.0,350.0,352.0,380,481.15966799999995 SURF_ID='surf1' /
&OBST XB=360.0,362.0,352.0,354.0,380,482.647339 SURF_ID='surf1' /
&OBST XB=360.0,362.0,354.0,356.0,380,484.134979 SURF_ID='surf1' /
&OBST XB=360.0,362.0,356.0,358.0,380,485.473694 SURF_ID='surf1' /
&OBST XB=360.0,362.0,358.0,360.0,380,486.789307 SURF_ID='surf1' /
&OBST XB=360.0,362.0,360.0,362.0,380,488.02783200000016 SURF_ID='surf1' /
&OBST XB=360.0,362.0,362.0,364.0,380,488.95977800000003 SURF_ID='surf1' /
&OBST XB=360.0,362.0,364.0,366.0,380,489.891724 SURF_ID='surf1' /
&OBST XB=360.0,362.0,366.0,368.0,380,490.92739900000004 SURF_ID='surf1' /
&OBST XB=360.0,362.0,368.0,370.0,380,491.97604400000006 SURF_ID='surf1' /
&OBST XB=360.0,362.0,370.0,372.0,380,493.169922 SURF_ID='surf1' /
&OBST XB=360.0,362.0,372.0,374.0,380,494.661987 SURF_ID='surf1' /
&OBST XB=360.0,362.0,374.0,376.0,380,496.320099 SURF_ID='surf1' /
&OBST XB=360.0,362.0,376.0,378.0,380,497.81219500000003 SURF_ID='surf1' /
&OBST XB=360.0,362.0,378.0,380.0,380,499.30425999999994 SURF_ID='surf1' /
&OBST XB=360.0,362.0,380.0,382.0,380,500.462708 SURF_ID='surf1' /
&OBST XB=360.0,362.0,382.0,384.0,380,500.98922699999997 SURF_ID='surf1' /
&OBST XB=360.0,362.0,384.0,386.0,380,501.34399400000007 SURF_ID='surf1' /
&OBST XB=360.0,362.0,386.0,388.0,380,501.69876100000016 SURF_ID='surf1' /
&OBST XB=360.0,362.0,388.0,390.0,380,502.092987 SURF_ID='surf1' /
&OBST XB=360.0,362.0,390.0,392.0,380,502.55511500000006 SURF_ID='surf1' /
&OBST XB=360.0,362.0,392.0,394.0,380,503.21731600000004 SURF_ID='surf1' /
&OBST XB=360.0,362.0,394.0,396.0,380,504.01211500000005 SURF_ID='surf1' /
&OBST XB=360.0,362.0,396.0,398.0,380,504.807312 SURF_ID='surf1' /
&OBST XB=360.0,362.0,398.0,400.0,380,505.52297999999996 SURF_ID='surf1' /
&OBST XB=360.0,362.0,400.0,402.0,380,506.112305 SURF_ID='surf1' /
&OBST XB=360.0,362.0,402.0,404.0,380,506.518555 SURF_ID='surf1' /
&OBST XB=360.0,362.0,404.0,406.0,380,506.76141399999995 SURF_ID='surf1' /
&OBST XB=360.0,362.0,406.0,408.0,380,507.00448600000004 SURF_ID='surf1' /
&OBST XB=360.0,362.0,408.0,410.0,380,507.274567 SURF_ID='surf1' /
&OBST XB=360.0,362.0,410.0,412.0,380,507.460114 SURF_ID='surf1' /
&OBST XB=360.0,362.0,412.0,414.0,380,507.460022 SURF_ID='surf1' /
&OBST XB=360.0,362.0,414.0,416.0,380,507.346313 SURF_ID='surf1' /
&OBST XB=360.0,362.0,416.0,418.0,380,507.219971 SURF_ID='surf1' /
&OBST XB=360.0,362.0,418.0,420.0,380,507.10614000000004 SURF_ID='surf1' /
&OBST XB=360.0,362.0,420.0,422.0,380,506.95178200000004 SURF_ID='surf1' /
&OBST XB=360.0,362.0,422.0,424.0,380,506.54834000000005 SURF_ID='surf1' /
&OBST XB=360.0,362.0,424.0,426.0,380,505.949463 SURF_ID='surf1' /
&OBST XB=360.0,362.0,426.0,428.0,380,505.41055300000005 SURF_ID='surf1' /
&OBST XB=360.0,362.0,428.0,430.0,380,504.871338 SURF_ID='surf1' /
&OBST XB=360.0,362.0,430.0,432.0,380,504.287842 SURF_ID='surf1' /
&OBST XB=360.0,362.0,432.0,434.0,380,503.87164299999995 SURF_ID='surf1' /
&OBST XB=360.0,362.0,434.0,436.0,380,503.57382199999995 SURF_ID='surf1' /
&OBST XB=360.0,362.0,436.0,438.0,380,503.24307300000004 SURF_ID='surf1' /
&OBST XB=360.0,362.0,438.0,440.0,380,502.912354 SURF_ID='surf1' /
&OBST XB=360.0,362.0,440.0,442.0,380,502.61453200000005 SURF_ID='surf1' /
&OBST XB=360.0,362.0,442.0,444.0,380,502.44293200000004 SURF_ID='surf1' /
&OBST XB=360.0,362.0,444.0,446.0,380,502.38443 SURF_ID='surf1' /
&OBST XB=360.0,362.0,446.0,448.0,380,502.349915 SURF_ID='surf1' /
&OBST XB=360.0,362.0,448.0,450.0,380,502.315399 SURF_ID='surf1' /
&OBST XB=360.0,362.0,450.0,452.0,380,502.27706900000004 SURF_ID='surf1' /
&OBST XB=360.0,362.0,452.0,454.0,380,502.219543 SURF_ID='surf1' /
&OBST XB=360.0,362.0,454.0,456.0,380,502.14688099999995 SURF_ID='surf1' /
&OBST XB=360.0,362.0,456.0,458.0,380,502.069641 SURF_ID='surf1' /
&OBST XB=360.0,362.0,458.0,460.0,380,501.98388700000004 SURF_ID='surf1' /
&OBST XB=360.0,362.0,460.0,462.0,380,501.906708 SURF_ID='surf1' /
&OBST XB=360.0,362.0,462.0,464.0,380,501.792084 SURF_ID='surf1' /
&OBST XB=360.0,362.0,464.0,466.0,380,501.601379 SURF_ID='surf1' /
&OBST XB=360.0,362.0,466.0,468.0,380,501.38043200000004 SURF_ID='surf1' /
&OBST XB=360.0,362.0,468.0,470.0,380,501.18158 SURF_ID='surf1' /
&OBST XB=360.0,362.0,470.0,472.0,380,500.98290999999995 SURF_ID='surf1' /
&OBST XB=360.0,362.0,472.0,474.0,380,500.729187 SURF_ID='surf1' /
&OBST XB=360.0,362.0,474.0,476.0,380,500.444611 SURF_ID='surf1' /
&OBST XB=360.0,362.0,476.0,478.0,380,500.127014 SURF_ID='surf1' /
&OBST XB=360.0,362.0,478.0,480.0,380,499.77404800000005 SURF_ID='surf1' /
&OBST XB=360.0,362.0,480.0,482.0,380,499.42129500000004 SURF_ID='surf1' /
&OBST XB=360.0,362.0,482.0,484.0,380,499.141449 SURF_ID='surf1' /
&OBST XB=360.0,362.0,484.0,486.0,380,499.01541100000003 SURF_ID='surf1' /
&OBST XB=360.0,362.0,486.0,488.0,380,498.970428 SURF_ID='surf1' /
&OBST XB=360.0,362.0,488.0,490.0,380,498.929932 SURF_ID='surf1' /
&OBST XB=360.0,362.0,490.0,492.0,380,498.889404 SURF_ID='surf1' /
&OBST XB=360.0,362.0,492.0,494.0,380,498.899567 SURF_ID='surf1' /
&OBST XB=360.0,362.0,494.0,496.0,380,499.20043899999996 SURF_ID='surf1' /
&OBST XB=360.0,362.0,496.0,498.0,380,499.68319699999995 SURF_ID='surf1' /
&OBST XB=360.0,362.0,498.0,500.0,380,500.165955 SURF_ID='surf1' /
&OBST XB=360.0,362.0,500.0,502.0,380,500.702454 SURF_ID='surf1' /
&OBST XB=360.0,362.0,502.0,504.0,380,501.18521100000004 SURF_ID='surf1' /
&OBST XB=360.0,362.0,504.0,506.0,380,501.848755 SURF_ID='surf1' /
&OBST XB=360.0,362.0,506.0,508.0,380,502.759766 SURF_ID='surf1' /
&OBST XB=360.0,362.0,508.0,510.0,380,503.683716 SURF_ID='surf1' /
&OBST XB=360.0,362.0,510.0,512.0,380,504.515167 SURF_ID='surf1' /
&OBST XB=360.0,362.0,512.0,514.0,380,505.34661900000003 SURF_ID='surf1' /
&OBST XB=360.0,362.0,514.0,516.0,380,506.326721 SURF_ID='surf1' /
&OBST XB=360.0,362.0,516.0,518.0,380,507.265808 SURF_ID='surf1' /
&OBST XB=360.0,362.0,518.0,520.0,380,508.21313499999997 SURF_ID='surf1' /
&OBST XB=360.0,362.0,520.0,522.0,380,509.26586900000007 SURF_ID='surf1' /
&OBST XB=360.0,362.0,522.0,524.0,380,510.318604 SURF_ID='surf1' /
&OBST XB=360.0,362.0,524.0,526.0,380,511.272217 SURF_ID='surf1' /
&OBST XB=360.0,362.0,526.0,528.0,380,512.2351679999998 SURF_ID='surf1' /
&OBST XB=360.0,362.0,528.0,530.0,380,513.307312 SURF_ID='surf1' /
&OBST XB=360.0,362.0,530.0,532.0,380,514.272583 SURF_ID='surf1' /
&OBST XB=360.0,362.0,532.0,534.0,380,515.237976 SURF_ID='surf1' /
&OBST XB=360.0,362.0,534.0,536.0,380,516.342712 SURF_ID='surf1' /
&OBST XB=360.0,362.0,536.0,538.0,380,517.502808 SURF_ID='surf1' /
&OBST XB=360.0,362.0,538.0,540.0,380,518.568176 SURF_ID='surf1' /
&OBST XB=360.0,362.0,540.0,542.0,380,519.634277 SURF_ID='surf1' /
&OBST XB=360.0,362.0,542.0,544.0,380,520.819031 SURF_ID='surf1' /
&OBST XB=360.0,362.0,544.0,546.0,380,521.8476559999998 SURF_ID='surf1' /
&OBST XB=360.0,362.0,546.0,548.0,380,522.758545 SURF_ID='surf1' /
&OBST XB=360.0,362.0,548.0,550.0,380,523.7069700000002 SURF_ID='surf1' /
&OBST XB=360.0,362.0,550.0,552.0,380,524.655396 SURF_ID='surf1' /
&OBST XB=360.0,362.0,552.0,554.0,380,525.509399 SURF_ID='surf1' /
&OBST XB=360.0,362.0,554.0,556.0,380,526.290039 SURF_ID='surf1' /
&OBST XB=360.0,362.0,556.0,558.0,380,526.8867190000002 SURF_ID='surf1' /
&OBST XB=360.0,362.0,558.0,560.0,380,527.238647 SURF_ID='surf1' /
&OBST XB=360.0,362.0,560.0,562.0,380,527.590332 SURF_ID='surf1' /
&OBST XB=360.0,362.0,562.0,564.0,380,527.9812009999998 SURF_ID='surf1' /
&OBST XB=360.0,362.0,564.0,566.0,380,528.440796 SURF_ID='surf1' /
&OBST XB=360.0,362.0,566.0,568.0,380,529.124084 SURF_ID='surf1' /
&OBST XB=360.0,362.0,568.0,570.0,380,530.067444 SURF_ID='surf1' /
&OBST XB=360.0,362.0,570.0,572.0,380,531.1151120000002 SURF_ID='surf1' /
&OBST XB=360.0,362.0,572.0,574.0,380,532.057861 SURF_ID='surf1' /
&OBST XB=360.0,362.0,574.0,576.0,380,533.001221 SURF_ID='surf1' /
&OBST XB=360.0,362.0,576.0,578.0,380,533.9530030000002 SURF_ID='surf1' /
&OBST XB=360.0,362.0,578.0,580.0,380,534.803589 SURF_ID='surf1' /
&OBST XB=360.0,362.0,580.0,582.0,380,535.56488 SURF_ID='surf1' /
&OBST XB=360.0,362.0,582.0,584.0,380,536.325562 SURF_ID='surf1' /
&OBST XB=360.0,362.0,584.0,586.0,380,537.171021 SURF_ID='surf1' /
&OBST XB=360.0,362.0,586.0,588.0,380,537.895874 SURF_ID='surf1' /
&OBST XB=360.0,362.0,588.0,590.0,380,538.568604 SURF_ID='surf1' /
&OBST XB=360.0,362.0,590.0,592.0,380,539.310425 SURF_ID='surf1' /
&OBST XB=360.0,362.0,592.0,594.0,380,540.051697 SURF_ID='surf1' /
&OBST XB=360.0,362.0,594.0,596.0,380,540.71875 SURF_ID='surf1' /
&OBST XB=360.0,362.0,596.0,598.0,380,541.435303 SURF_ID='surf1' /
&OBST XB=360.0,362.0,598.0,600.0,380,542.302124 SURF_ID='surf1' /
&OBST XB=360.0,362.0,600.0,602.0,380,543.106567 SURF_ID='surf1' /
&OBST XB=360.0,362.0,602.0,604.0,380,543.910889 SURF_ID='surf1' /
&OBST XB=360.0,362.0,604.0,606.0,380,544.804321 SURF_ID='surf1' /
&OBST XB=360.0,362.0,606.0,608.0,380,545.713745 SURF_ID='surf1' /
&OBST XB=360.0,362.0,608.0,610.0,380,546.556091 SURF_ID='surf1' /
&OBST XB=360.0,362.0,610.0,612.0,380,547.409607 SURF_ID='surf1' /
&OBST XB=360.0,362.0,612.0,614.0,380,548.3580929999998 SURF_ID='surf1' /
&OBST XB=360.0,362.0,614.0,616.0,380,549.21167 SURF_ID='surf1' /
&OBST XB=360.0,362.0,616.0,618.0,380,550.0460820000002 SURF_ID='surf1' /
&OBST XB=360.0,362.0,618.0,620.0,380,550.920166 SURF_ID='surf1' /
&OBST XB=360.0,362.0,620.0,622.0,380,551.758057 SURF_ID='surf1' /
&OBST XB=360.0,362.0,622.0,624.0,380,552.512085 SURF_ID='surf1' /
&OBST XB=360.0,362.0,624.0,626.0,380,553.266113 SURF_ID='surf1' /
&OBST XB=360.0,362.0,626.0,628.0,380,554.149719 SURF_ID='surf1' /
&OBST XB=360.0,362.0,628.0,630.0,380,555.081055 SURF_ID='surf1' /
&OBST XB=360.0,362.0,630.0,632.0,380,556.131226 SURF_ID='surf1' /
&OBST XB=360.0,362.0,632.0,634.0,380,557.298218 SURF_ID='surf1' /
&OBST XB=360.0,362.0,634.0,636.0,380,558.465332 SURF_ID='surf1' /
&OBST XB=360.0,362.0,636.0,638.0,380,559.507263 SURF_ID='surf1' /
&OBST XB=360.0,362.0,638.0,640.0,380,560.247437 SURF_ID='surf1' /
&OBST XB=360.0,362.0,640.0,642.0,380,560.8112179999998 SURF_ID='surf1' /
&OBST XB=360.0,362.0,642.0,644.0,380,561.318848 SURF_ID='surf1' /
&OBST XB=360.0,362.0,644.0,646.0,380,561.826477 SURF_ID='surf1' /
&OBST XB=360.0,362.0,646.0,648.0,380,562.3905639999998 SURF_ID='surf1' /
&OBST XB=360.0,362.0,648.0,650.0,380,563.004395 SURF_ID='surf1' /
&OBST XB=360.0,362.0,650.0,652.0,380,563.602905 SURF_ID='surf1' /
&OBST XB=360.0,362.0,652.0,654.0,380,564.2032469999998 SURF_ID='surf1' /
&OBST XB=360.0,362.0,654.0,656.0,380,564.870361 SURF_ID='surf1' /
&OBST XB=360.0,362.0,656.0,658.0,380,565.470642 SURF_ID='surf1' /
&OBST XB=360.0,362.0,658.0,660.0,380,566.023193 SURF_ID='surf1' /
&OBST XB=360.0,362.0,660.0,662.0,380,566.575684 SURF_ID='surf1' /
&OBST XB=360.0,362.0,662.0,664.0,380,567.109375 SURF_ID='surf1' /
&OBST XB=360.0,362.0,664.0,666.0,380,567.5899049999998 SURF_ID='surf1' /
&OBST XB=360.0,362.0,666.0,668.0,380,568.070496 SURF_ID='surf1' /
&OBST XB=360.0,362.0,668.0,670.0,380,568.515198 SURF_ID='surf1' /
&OBST XB=360.0,362.0,670.0,672.0,380,568.7987059999998 SURF_ID='surf1' /
&OBST XB=360.0,362.0,672.0,674.0,380,569.036743 SURF_ID='surf1' /
&OBST XB=360.0,362.0,674.0,676.0,380,569.301331 SURF_ID='surf1' /
&OBST XB=360.0,362.0,676.0,678.0,380,569.56604 SURF_ID='surf1' /
&OBST XB=360.0,362.0,678.0,680.0,380,569.693909 SURF_ID='surf1' /
&OBST XB=360.0,362.0,680.0,682.0,380,569.55188 SURF_ID='surf1' /
&OBST XB=360.0,362.0,682.0,684.0,380,569.277039 SURF_ID='surf1' /
&OBST XB=360.0,362.0,684.0,686.0,380,569.029663 SURF_ID='surf1' /
&OBST XB=360.0,362.0,686.0,688.0,380,568.782104 SURF_ID='surf1' /
&OBST XB=360.0,362.0,688.0,690.0,380,568.43335 SURF_ID='surf1' /
&OBST XB=360.0,362.0,690.0,692.0,380,567.876709 SURF_ID='surf1' /
&OBST XB=360.0,362.0,692.0,694.0,380,567.255066 SURF_ID='surf1' /
&OBST XB=360.0,362.0,694.0,696.0,380,566.633789 SURF_ID='surf1' /
&OBST XB=360.0,362.0,696.0,698.0,380,565.943359 SURF_ID='surf1' /
&OBST XB=360.0,362.0,698.0,700.0,380,565.247925 SURF_ID='surf1' /
&OBST XB=360.0,362.0,700.0,702.0,380,564.6094969999998 SURF_ID='surf1' /
&OBST XB=362.0,364.0,200.0,202.0,380,423.430817 SURF_ID='surf1' /
&OBST XB=362.0,364.0,202.0,204.0,380,424.711304 SURF_ID='surf1' /
&OBST XB=362.0,364.0,204.0,206.0,380,426.07962000000003 SURF_ID='surf1' /
&OBST XB=362.0,364.0,206.0,208.0,380,427.27612300000004 SURF_ID='surf1' /
&OBST XB=362.0,364.0,208.0,210.0,380,428.246521 SURF_ID='surf1' /
&OBST XB=362.0,364.0,210.0,212.0,380,429.21698 SURF_ID='surf1' /
&OBST XB=362.0,364.0,212.0,214.0,380,430.294708 SURF_ID='surf1' /
&OBST XB=362.0,364.0,214.0,216.0,380,431.278687 SURF_ID='surf1' /
&OBST XB=362.0,364.0,216.0,218.0,380,432.49365199999994 SURF_ID='surf1' /
&OBST XB=362.0,364.0,218.0,220.0,380,434.032654 SURF_ID='surf1' /
&OBST XB=362.0,364.0,220.0,222.0,380,435.57165499999996 SURF_ID='surf1' /
&OBST XB=362.0,364.0,222.0,224.0,380,436.956604 SURF_ID='surf1' /
&OBST XB=362.0,364.0,224.0,226.0,380,438.340942 SURF_ID='surf1' /
&OBST XB=362.0,364.0,226.0,228.0,380,439.923187 SURF_ID='surf1' /
&OBST XB=362.0,364.0,228.0,230.0,380,441.386932 SURF_ID='surf1' /
&OBST XB=362.0,364.0,230.0,232.0,380,442.850739 SURF_ID='surf1' /
&OBST XB=362.0,364.0,232.0,234.0,380,444.477386 SURF_ID='surf1' /
&OBST XB=362.0,364.0,234.0,236.0,380,446.10305800000003 SURF_ID='surf1' /
&OBST XB=362.0,364.0,236.0,238.0,380,447.467072 SURF_ID='surf1' /
&OBST XB=362.0,364.0,238.0,240.0,380,448.70074500000004 SURF_ID='surf1' /
&OBST XB=362.0,364.0,240.0,242.0,380,450.06469699999997 SURF_ID='surf1' /
&OBST XB=362.0,364.0,242.0,244.0,380,451.292145 SURF_ID='surf1' /
&OBST XB=362.0,364.0,244.0,246.0,380,452.519531 SURF_ID='surf1' /
&OBST XB=362.0,364.0,246.0,248.0,380,453.70159900000004 SURF_ID='surf1' /
&OBST XB=362.0,364.0,248.0,250.0,380,454.623993 SURF_ID='surf1' /
&OBST XB=362.0,364.0,250.0,252.0,380,455.38421600000004 SURF_ID='surf1' /
&OBST XB=362.0,364.0,252.0,254.0,380,456.14444000000003 SURF_ID='surf1' /
&OBST XB=362.0,364.0,254.0,256.0,380,456.98922699999997 SURF_ID='surf1' /
&OBST XB=362.0,364.0,256.0,258.0,380,457.711029 SURF_ID='surf1' /
&OBST XB=362.0,364.0,258.0,260.0,380,458.34594699999997 SURF_ID='surf1' /
&OBST XB=362.0,364.0,260.0,262.0,380,459.017395 SURF_ID='surf1' /
&OBST XB=362.0,364.0,262.0,264.0,380,459.689301 SURF_ID='surf1' /
&OBST XB=362.0,364.0,264.0,266.0,380,460.293884 SURF_ID='surf1' /
&OBST XB=362.0,364.0,266.0,268.0,380,460.84606900000006 SURF_ID='surf1' /
&OBST XB=362.0,364.0,268.0,270.0,380,461.33081100000004 SURF_ID='surf1' /
&OBST XB=362.0,364.0,270.0,272.0,380,461.693176 SURF_ID='surf1' /
&OBST XB=362.0,364.0,272.0,274.0,380,462.055725 SURF_ID='surf1' /
&OBST XB=362.0,364.0,274.0,276.0,380,462.458679 SURF_ID='surf1' /
&OBST XB=362.0,364.0,276.0,278.0,380,462.80001799999997 SURF_ID='surf1' /
&OBST XB=362.0,364.0,278.0,280.0,380,462.954041 SURF_ID='surf1' /
&OBST XB=362.0,364.0,280.0,282.0,380,462.98593099999994 SURF_ID='surf1' /
&OBST XB=362.0,364.0,282.0,284.0,380,463.021362 SURF_ID='surf1' /
&OBST XB=362.0,364.0,284.0,286.0,380,463.05331399999994 SURF_ID='surf1' /
&OBST XB=362.0,364.0,286.0,288.0,380,463.075562 SURF_ID='surf1' /
&OBST XB=362.0,364.0,288.0,290.0,380,462.98092699999995 SURF_ID='surf1' /
&OBST XB=362.0,364.0,290.0,292.0,380,462.77575700000006 SURF_ID='surf1' /
&OBST XB=362.0,364.0,292.0,294.0,380,462.591095 SURF_ID='surf1' /
&OBST XB=362.0,364.0,294.0,296.0,380,462.406372 SURF_ID='surf1' /
&OBST XB=362.0,364.0,296.0,298.0,380,462.20043899999996 SURF_ID='surf1' /
&OBST XB=362.0,364.0,298.0,300.0,380,461.996429 SURF_ID='surf1' /
&OBST XB=362.0,364.0,300.0,302.0,380,461.769684 SURF_ID='surf1' /
&OBST XB=362.0,364.0,302.0,304.0,380,461.517883 SURF_ID='surf1' /
&OBST XB=362.0,364.0,304.0,306.0,380,461.26611299999996 SURF_ID='surf1' /
&OBST XB=362.0,364.0,306.0,308.0,380,461.03936799999997 SURF_ID='surf1' /
&OBST XB=362.0,364.0,308.0,310.0,380,460.763611 SURF_ID='surf1' /
&OBST XB=362.0,364.0,310.0,312.0,380,460.39898700000003 SURF_ID='surf1' /
&OBST XB=362.0,364.0,312.0,314.0,380,460.02008099999995 SURF_ID='surf1' /
&OBST XB=362.0,364.0,314.0,316.0,380,459.67916900000006 SURF_ID='surf1' /
&OBST XB=362.0,364.0,316.0,318.0,380,459.337982 SURF_ID='surf1' /
&OBST XB=362.0,364.0,318.0,320.0,380,459.52279699999997 SURF_ID='surf1' /
&OBST XB=362.0,364.0,320.0,322.0,380,460.37469500000003 SURF_ID='surf1' /
&OBST XB=362.0,364.0,322.0,324.0,380,461.449371 SURF_ID='surf1' /
&OBST XB=362.0,364.0,324.0,326.0,380,462.642883 SURF_ID='surf1' /
&OBST XB=362.0,364.0,326.0,328.0,380,463.83642599999996 SURF_ID='surf1' /
&OBST XB=362.0,364.0,328.0,330.0,380,465.009125 SURF_ID='surf1' /
&OBST XB=362.0,364.0,330.0,332.0,380,466.39401200000003 SURF_ID='surf1' /
&OBST XB=362.0,364.0,332.0,334.0,380,468.01257300000003 SURF_ID='surf1' /
&OBST XB=362.0,364.0,334.0,336.0,380,469.46908600000006 SURF_ID='surf1' /
&OBST XB=362.0,364.0,336.0,338.0,380,470.924652 SURF_ID='surf1' /
&OBST XB=362.0,364.0,338.0,340.0,380,472.52063 SURF_ID='surf1' /
&OBST XB=362.0,364.0,340.0,342.0,380,474.064453 SURF_ID='surf1' /
&OBST XB=362.0,364.0,342.0,344.0,380,475.425476 SURF_ID='surf1' /
&OBST XB=362.0,364.0,344.0,346.0,380,476.78649900000005 SURF_ID='surf1' /
&OBST XB=362.0,364.0,346.0,348.0,380,478.29806500000007 SURF_ID='surf1' /
&OBST XB=362.0,364.0,348.0,350.0,380,479.658264 SURF_ID='surf1' /
&OBST XB=362.0,364.0,350.0,352.0,380,481.02020300000004 SURF_ID='surf1' /
&OBST XB=362.0,364.0,352.0,354.0,380,482.534271 SURF_ID='surf1' /
&OBST XB=362.0,364.0,354.0,356.0,380,484.04830899999996 SURF_ID='surf1' /
&OBST XB=362.0,364.0,356.0,358.0,380,485.41076699999996 SURF_ID='surf1' /
&OBST XB=362.0,364.0,358.0,360.0,380,486.74585 SURF_ID='surf1' /
&OBST XB=362.0,364.0,360.0,362.0,380,487.96334800000005 SURF_ID='surf1' /
&OBST XB=362.0,364.0,362.0,364.0,380,488.84130899999997 SURF_ID='surf1' /
&OBST XB=362.0,364.0,364.0,366.0,380,489.71926900000005 SURF_ID='surf1' /
&OBST XB=362.0,364.0,366.0,368.0,380,490.69491600000003 SURF_ID='surf1' /
&OBST XB=362.0,364.0,368.0,370.0,380,491.68606600000004 SURF_ID='surf1' /