&HEAD CHID='Region2', TITLE='Simulation of Chimney Tops fire' /

&MESH IJK=50,50,30, XB=420,520.0,260,360.0,380,440.0, MULT_ID='mesh' / 
&MULT ID='mesh', DX=100.0, DY=100.0, DZ=60.0, I_LOWER=0, I_UPPER=1, J_LOWER=0, J_UPPER=1, K_UPPER=3 /  

&MISC TMPA=30., TERRAIN_CASE=.TRUE., TERRAIN_IMAGE='Region2.png', VERBOSE=.TRUE., RESTART=.FALSE., PROJECTION=.TRUE.  /
&TIME T_BEGIN = 60.0, T_END = 120.0 / 

&DUMP NFRAMES=120, DT_PART=100., CFL_FILE=.TRUE., DT_PL3D=60.0 /  
&WIND DIRECTION=135., SPEED=5., SPONGE_CELLS=0, STRATIFICATION=.FALSE. /

&SLCF XB=420,620,260,460,380,620, QUANTITY='HRRPUV', CELL_CENTERED=.TRUE. /  

&CATF OTHER_FILES='../Region1/Region1.ini' / 


&RAMP ID='fire', T= 60, F=1. /
&RAMP ID='fire', T= 65.0, F=1. /
&RAMP ID='fire', T= 70.0, F=0. /
&VENT MB='XMIN', SURF_ID='OPEN' /  
&VENT MB='XMAX', SURF_ID='OPEN' /  
&VENT MB='YMIN', SURF_ID='OPEN' /  
&VENT MB='YMAX', SURF_ID='OPEN' /  
&VENT MB='ZMAX', SURF_ID='OPEN' /  

&REAC FUEL='CELLULOSE', C=6, H=10, O=5, SOOT_YIELD=0.005 / 

&SPEC ID='WATER VAPOR' / 

&SURF ID                        = 'grass' 
      MATL_ID(1,1:2)            = 'GENERIC VEGETATION','MOISTURE'
      MATL_MASS_FRACTION(1,1:2) = 0.937,0.063
      THICKNESS                 = 0.0002
      LENGTH                    = 0.21
      HEAT_TRANSFER_COEFFICIENT = 30.
      GEOMETRY                  = 'CYLINDRICAL' /

&SURF ID                        = 'needles' 
      MATL_ID(1,1:2)            = 'GENERIC VEGETATION','MOISTURE'
      MATL_MASS_FRACTION(1,1:2) = 0.95,0.05
      THICKNESS                 = 0.02
      LENGTH                    = 0.21
      HEAT_TRANSFER_COEFFICIENT = 30.
      GEOMETRY                  = 'CYLINDRICAL' /

&MATL ID = 'GENERIC VEGETATION' 
      DENSITY = 500.
      CONDUCTIVITY = 0.1
      SPECIFIC_HEAT= 1.5
      REFERENCE_TEMPERATURE = 200
      PYROLYSIS_RANGE = 30.
      NU_MATL = 0.2
      NU_SPEC = 0.8 
      SPEC_ID = 'CELLULOSE'
      HEAT_OF_COMBUSTION = 15600.
      HEAT_OF_REACTION = 418.
      MATL_ID  = 'CHAR' /

&MATL ID = 'MOISTURE' 
      DENSITY = 1000.
      CONDUCTIVITY = 0.1
      SPECIFIC_HEAT= 4.184
      REFERENCE_TEMPERATURE = 100.
      PYROLYSIS_RANGE = 10.
      NU_SPEC = 1.0 
      SPEC_ID = 'WATER VAPOR'
      HEAT_OF_REACTION = 2500./

&MATL ID = 'CHAR'
      DENSITY  = 100.
      CONDUCTIVITY = 0.1 
      SPECIFIC_HEAT = 1.0 / 

&MATL ID='DIRT'
      CONDUCTIVITY = 0.25
      SPECIFIC_HEAT = 2.
     DENSITY = 1300. /

&PART ID='foliage', DRAG_COEFFICIENT=1.0, SURF_ID='needles', SAMPLING_FACTOR=5,
      QUANTITIES='PARTICLE TEMPERATURE','PARTICLE MASS','PARTICLE DIAMETER', STATIC=.TRUE., COLOR='GREEN' / 

&PART ID='grass', DRAG_COEFFICIENT=1.0, SURF_ID='grass', SAMPLING_FACTOR=958,
      QUANTITIES='PARTICLE TEMPERATURE','PARTICLE MASS','PARTICLE DIAMETER', STATIC=.TRUE., COLOR='BROWN' /

&SURF ID = 'surf1', RGB = 122,117,48, MATL_ID='DIRT', THICKNESS=0.2, PART_ID='grass', PARTICLE_SURFACE_DENSITY=1.0 / 
&SURF ID = 'surf2', RGB = 0,100,0, MATL_ID='DIRT', THICKNESS=0.2 / 

&OBST XB=420.0,422.0,260.0,262.0,380,435.296143 SURF_ID='surf1' /
&OBST XB=420.0,422.0,261.0,263.0,380,435.296143 SURF_ID='surf1' /
&OBST XB=420.0,422.0,262.0,264.0,380,435.51998899999995 SURF_ID='surf1' /
&OBST XB=420.0,422.0,263.0,265.0,380,435.51998899999995 SURF_ID='surf1' /
&OBST XB=420.0,422.0,264.0,266.0,380,435.72143600000004 SURF_ID='surf1' /
&OBST XB=420.0,422.0,265.0,267.0,380,435.72143600000004 SURF_ID='surf1' /
&OBST XB=420.0,422.0,266.0,268.0,380,435.81228600000003 SURF_ID='surf1' /
&OBST XB=420.0,422.0,267.0,269.0,380,435.81228600000003 SURF_ID='surf1' /
&OBST XB=420.0,422.0,268.0,270.0,380,435.64196799999996 SURF_ID='surf1' /
&OBST XB=420.0,422.0,269.0,271.0,380,435.64196799999996 SURF_ID='surf1' /
&OBST XB=420.0,422.0,270.0,272.0,380,435.332855 SURF_ID='surf1' /
&OBST XB=420.0,422.0,271.0,273.0,380,435.332855 SURF_ID='surf1' /
&OBST XB=420.0,422.0,272.0,274.0,380,435.02359 SURF_ID='surf1' /
&OBST XB=420.0,422.0,273.0,275.0,380,435.02359 SURF_ID='surf1' /
&OBST XB=420.0,422.0,274.0,276.0,380,434.679901 SURF_ID='surf1' /
&OBST XB=420.0,422.0,275.0,277.0,380,434.679901 SURF_ID='surf1' /
&OBST XB=420.0,422.0,276.0,278.0,380,434.366364 SURF_ID='surf1' /
&OBST XB=420.0,422.0,277.0,279.0,380,434.366364 SURF_ID='surf1' /
&OBST XB=420.0,422.0,278.0,280.0,380,434.15911900000003 SURF_ID='surf1' /
&OBST XB=420.0,422.0,279.0,281.0,380,434.15911900000003 SURF_ID='surf1' /
&OBST XB=420.0,422.0,280.0,282.0,380,434.011719 SURF_ID='surf1' /
&OBST XB=420.0,422.0,281.0,283.0,380,434.011719 SURF_ID='surf1' /
&OBST XB=420.0,422.0,282.0,284.0,380,433.8479 SURF_ID='surf1' /
&OBST XB=420.0,422.0,283.0,285.0,380,433.8479 SURF_ID='surf1' /
&OBST XB=420.0,422.0,284.0,286.0,380,433.700378 SURF_ID='surf1' /
&OBST XB=420.0,422.0,285.0,287.0,380,433.700378 SURF_ID='surf1' /
&OBST XB=420.0,422.0,286.0,288.0,380,433.597046 SURF_ID='surf1' /
&OBST XB=420.0,422.0,287.0,289.0,380,433.597046 SURF_ID='surf1' /
&OBST XB=420.0,422.0,288.0,290.0,380,434.0251769999999 SURF_ID='surf1' /
&OBST XB=420.0,422.0,289.0,291.0,380,434.0251769999999 SURF_ID='surf1' /
&OBST XB=420.0,422.0,290.0,292.0,380,434.95651200000003 SURF_ID='surf1' /
&OBST XB=420.0,422.0,291.0,293.0,380,434.95651200000003 SURF_ID='surf1' /
&OBST XB=420.0,422.0,292.0,294.0,380,435.79455599999994 SURF_ID='surf1' /
&OBST XB=420.0,422.0,293.0,295.0,380,435.79455599999994 SURF_ID='surf1' /
&OBST XB=420.0,422.0,294.0,296.0,380,436.63311799999997 SURF_ID='surf1' /
&OBST XB=420.0,422.0,295.0,297.0,380,436.63311799999997 SURF_ID='surf1' /
&OBST XB=420.0,422.0,296.0,298.0,380,437.563446 SURF_ID='surf1' /
&OBST XB=420.0,422.0,297.0,299.0,380,437.563446 SURF_ID='surf1' /
&OBST XB=420.0,422.0,298.0,300.0,380,438.35281399999997 SURF_ID='surf1' /
&OBST XB=420.0,422.0,299.0,301.0,380,438.35281399999997 SURF_ID='surf1' /
&OBST XB=420.0,422.0,300.0,302.0,380,439.08410599999996 SURF_ID='surf1' /
&OBST XB=420.0,422.0,301.0,303.0,380,439.08410599999996 SURF_ID='surf1' /
&OBST XB=420.0,422.0,302.0,304.0,380,439.896301 SURF_ID='surf1' /
&OBST XB=420.0,422.0,303.0,305.0,380,439.896301 SURF_ID='surf1' /
&OBST XB=420.0,422.0,304.0,306.0,380,440.708466 SURF_ID='surf1' /
&OBST XB=420.0,422.0,305.0,307.0,380,440.708466 SURF_ID='surf1' /
&OBST XB=420.0,422.0,306.0,308.0,380,441.439758 SURF_ID='surf1' /
&OBST XB=420.0,422.0,307.0,309.0,380,441.439758 SURF_ID='surf1' /
&OBST XB=420.0,422.0,308.0,310.0,380,442.18426500000004 SURF_ID='surf1' /
&OBST XB=420.0,422.0,309.0,311.0,380,442.18426500000004 SURF_ID='surf1' /
&OBST XB=420.0,422.0,310.0,312.0,380,443.027283 SURF_ID='surf1' /
&OBST XB=420.0,422.0,311.0,313.0,380,443.027283 SURF_ID='surf1' /
&OBST XB=420.0,422.0,312.0,314.0,380,443.873688 SURF_ID='surf1' /
&OBST XB=420.0,422.0,313.0,315.0,380,443.873688 SURF_ID='surf1' /
&OBST XB=420.0,422.0,314.0,316.0,380,444.63534500000003 SURF_ID='surf1' /
&OBST XB=420.0,422.0,315.0,317.0,380,444.63534500000003 SURF_ID='surf1' /
&OBST XB=420.0,422.0,316.0,318.0,380,445.397491 SURF_ID='surf1' /
&OBST XB=420.0,422.0,317.0,319.0,380,445.397491 SURF_ID='surf1' /
&OBST XB=420.0,422.0,318.0,320.0,380,446.28283700000003 SURF_ID='surf1' /
&OBST XB=420.0,422.0,319.0,321.0,380,446.28283700000003 SURF_ID='surf1' /
&OBST XB=420.0,422.0,320.0,322.0,380,447.12634299999996 SURF_ID='surf1' /
&OBST XB=420.0,422.0,321.0,323.0,380,447.12634299999996 SURF_ID='surf1' /
&OBST XB=420.0,422.0,322.0,324.0,380,447.98501600000003 SURF_ID='surf1' /
&OBST XB=420.0,422.0,323.0,325.0,380,447.98501600000003 SURF_ID='surf1' /
&OBST XB=420.0,422.0,324.0,326.0,380,448.93865999999997 SURF_ID='surf1' /
&OBST XB=420.0,422.0,325.0,327.0,380,448.93865999999997 SURF_ID='surf1' /
&OBST XB=420.0,422.0,326.0,328.0,380,449.892303 SURF_ID='surf1' /
&OBST XB=420.0,422.0,327.0,329.0,380,449.892303 SURF_ID='surf1' /
&OBST XB=420.0,422.0,328.0,330.0,380,450.769287 SURF_ID='surf1' /
&OBST XB=420.0,422.0,329.0,331.0,380,450.769287 SURF_ID='surf1' /
&OBST XB=420.0,422.0,330.0,332.0,380,451.68585199999995 SURF_ID='surf1' /
&OBST XB=420.0,422.0,331.0,333.0,380,451.68585199999995 SURF_ID='surf1' /
&OBST XB=420.0,422.0,332.0,334.0,380,452.71929900000003 SURF_ID='surf1' /
&OBST XB=420.0,422.0,333.0,335.0,380,452.71929900000003 SURF_ID='surf1' /
&OBST XB=420.0,422.0,334.0,336.0,380,453.649292 SURF_ID='surf1' /
&OBST XB=420.0,422.0,335.0,337.0,380,453.649292 SURF_ID='surf1' /
&OBST XB=420.0,422.0,336.0,338.0,380,454.57867400000003 SURF_ID='surf1' /
&OBST XB=420.0,422.0,337.0,339.0,380,454.57867400000003 SURF_ID='surf1' /
&OBST XB=420.0,422.0,338.0,340.0,380,455.619171 SURF_ID='surf1' /
&OBST XB=420.0,422.0,339.0,341.0,380,455.619171 SURF_ID='surf1' /
&OBST XB=420.0,422.0,340.0,342.0,380,456.67929100000003 SURF_ID='surf1' /
&OBST XB=420.0,422.0,341.0,343.0,380,456.67929100000003 SURF_ID='surf1' /
&OBST XB=420.0,422.0,342.0,344.0,380,457.643372 SURF_ID='surf1' /
&OBST XB=420.0,422.0,343.0,345.0,380,457.643372 SURF_ID='surf1' /
&OBST XB=420.0,422.0,344.0,346.0,380,458.607422 SURF_ID='surf1' /
&OBST XB=420.0,422.0,345.0,347.0,380,458.607422 SURF_ID='surf1' /
&OBST XB=420.0,422.0,346.0,348.0,380,459.67810099999997 SURF_ID='surf1' /
&OBST XB=420.0,422.0,347.0,349.0,380,459.67810099999997 SURF_ID='surf1' /
&OBST XB=420.0,422.0,348.0,350.0,380,460.64010599999995 SURF_ID='surf1' /
&OBST XB=420.0,422.0,349.0,351.0,380,460.64010599999995 SURF_ID='surf1' /
&OBST XB=420.0,422.0,350.0,352.0,380,461.59326200000004 SURF_ID='surf1' /
&OBST XB=420.0,422.0,351.0,353.0,380,461.59326200000004 SURF_ID='surf1' /
&OBST XB=420.0,422.0,352.0,354.0,380,462.64565999999996 SURF_ID='surf1' /
&OBST XB=420.0,422.0,353.0,355.0,380,462.64565999999996 SURF_ID='surf1' /
&OBST XB=420.0,422.0,354.0,356.0,380,463.69809000000004 SURF_ID='surf1' /
&OBST XB=420.0,422.0,355.0,357.0,380,463.69809000000004 SURF_ID='surf1' /
&OBST XB=420.0,422.0,356.0,358.0,380,464.64514199999996 SURF_ID='surf1' /
&OBST XB=420.0,422.0,357.0,359.0,380,464.64514199999996 SURF_ID='surf1' /
&OBST XB=420.0,422.0,358.0,360.0,380,465.579956 SURF_ID='surf1' /
&OBST XB=420.0,422.0,359.0,361.0,380,465.579956 SURF_ID='surf1' /
&OBST XB=420.0,422.0,360.0,362.0,380,466.501984 SURF_ID='surf1' /
&OBST XB=420.0,422.0,361.0,363.0,380,466.501984 SURF_ID='surf1' /
&OBST XB=420.0,422.0,362.0,364.0,380,467.236389 SURF_ID='surf1' /
&OBST XB=420.0,422.0,363.0,365.0,380,467.236389 SURF_ID='surf1' /
&OBST XB=420.0,422.0,364.0,366.0,380,467.970764 SURF_ID='surf1' /
&OBST XB=420.0,422.0,365.0,367.0,380,467.970764 SURF_ID='surf1' /
&OBST XB=420.0,422.0,366.0,368.0,380,468.786896 SURF_ID='surf1' /
&OBST XB=420.0,422.0,367.0,369.0,380,468.786896 SURF_ID='surf1' /
&OBST XB=420.0,422.0,368.0,370.0,380,469.58917199999996 SURF_ID='surf1' /
&OBST XB=420.0,422.0,369.0,371.0,380,469.58917199999996 SURF_ID='surf1' /
&OBST XB=420.0,422.0,370.0,372.0,380,470.066498 SURF_ID='surf1' /
&OBST XB=420.0,422.0,371.0,373.0,380,470.066498 SURF_ID='surf1' /
&OBST XB=420.0,422.0,372.0,374.0,380,470.253479 SURF_ID='surf1' /
&OBST XB=420.0,422.0,373.0,375.0,380,470.253479 SURF_ID='surf1' /
&OBST XB=420.0,422.0,374.0,376.0,380,470.46124299999997 SURF_ID='surf1' /
&OBST XB=420.0,422.0,375.0,377.0,380,470.46124299999997 SURF_ID='surf1' /
&OBST XB=420.0,422.0,376.0,378.0,380,470.648224 SURF_ID='surf1' /
&OBST XB=420.0,422.0,377.0,379.0,380,470.648224 SURF_ID='surf1' /
&OBST XB=420.0,422.0,378.0,380.0,380,470.835205 SURF_ID='surf1' /
&OBST XB=420.0,422.0,379.0,381.0,380,470.835205 SURF_ID='surf1' /
&OBST XB=420.0,422.0,380.0,382.0,380,470.94320700000003 SURF_ID='surf1' /
&OBST XB=420.0,422.0,381.0,383.0,380,470.94320700000003 SURF_ID='surf1' /
&OBST XB=420.0,422.0,382.0,384.0,380,470.924988 SURF_ID='surf1' /
&OBST XB=420.0,422.0,383.0,385.0,380,470.924988 SURF_ID='surf1' /
&OBST XB=420.0,422.0,384.0,386.0,380,470.884735 SURF_ID='surf1' /
&OBST XB=420.0,422.0,385.0,387.0,380,470.884735 SURF_ID='surf1' /
&OBST XB=420.0,422.0,386.0,388.0,380,470.844482 SURF_ID='surf1' /
&OBST XB=420.0,422.0,387.0,389.0,380,470.844482 SURF_ID='surf1' /
&OBST XB=420.0,422.0,388.0,390.0,380,470.799774 SURF_ID='surf1' /
&OBST XB=420.0,422.0,389.0,391.0,380,470.799774 SURF_ID='surf1' /
&OBST XB=420.0,422.0,390.0,392.0,380,470.8638 SURF_ID='surf1' /
&OBST XB=420.0,422.0,391.0,393.0,380,470.8638 SURF_ID='surf1' /
&OBST XB=420.0,422.0,392.0,394.0,380,471.122437 SURF_ID='surf1' /
&OBST XB=420.0,422.0,393.0,395.0,380,471.122437 SURF_ID='surf1' /
&OBST XB=420.0,422.0,394.0,396.0,380,471.467041 SURF_ID='surf1' /
&OBST XB=420.0,422.0,395.0,397.0,380,471.467041 SURF_ID='surf1' /
&OBST XB=420.0,422.0,396.0,398.0,380,471.81185899999997 SURF_ID='surf1' /
&OBST XB=420.0,422.0,397.0,399.0,380,471.81185899999997 SURF_ID='surf1' /
&OBST XB=420.0,422.0,398.0,400.0,380,472.12213099999997 SURF_ID='surf1' /
&OBST XB=420.0,422.0,399.0,401.0,380,472.12213099999997 SURF_ID='surf1' /
&OBST XB=420.0,422.0,400.0,402.0,380,472.500946 SURF_ID='surf1' /
&OBST XB=420.0,422.0,401.0,403.0,380,472.500946 SURF_ID='surf1' /
&OBST XB=420.0,422.0,402.0,404.0,380,473.05627400000003 SURF_ID='surf1' /
&OBST XB=420.0,422.0,403.0,405.0,380,473.05627400000003 SURF_ID='surf1' /
&OBST XB=420.0,422.0,404.0,406.0,380,473.62252800000016 SURF_ID='surf1' /
&OBST XB=420.0,422.0,405.0,407.0,380,473.62252800000016 SURF_ID='surf1' /
&OBST XB=420.0,422.0,406.0,408.0,380,474.18908700000003 SURF_ID='surf1' /
&OBST XB=420.0,422.0,407.0,409.0,380,474.18908700000003 SURF_ID='surf1' /
&OBST XB=420.0,422.0,408.0,410.0,380,474.81872599999997 SURF_ID='surf1' /
&OBST XB=420.0,422.0,409.0,411.0,380,474.81872599999997 SURF_ID='surf1' /
&OBST XB=420.0,422.0,410.0,412.0,380,475.505951 SURF_ID='surf1' /
&OBST XB=420.0,422.0,411.0,413.0,380,475.505951 SURF_ID='surf1' /
&OBST XB=420.0,422.0,412.0,414.0,380,476.23800700000004 SURF_ID='surf1' /
&OBST XB=420.0,422.0,413.0,415.0,380,476.23800700000004 SURF_ID='surf1' /
&OBST XB=420.0,422.0,414.0,416.0,380,477.046936 SURF_ID='surf1' /
&OBST XB=420.0,422.0,415.0,417.0,380,477.046936 SURF_ID='surf1' /
&OBST XB=420.0,422.0,416.0,418.0,380,477.94592300000005 SURF_ID='surf1' /
&OBST XB=420.0,422.0,417.0,419.0,380,477.94592300000005 SURF_ID='surf1' /
&OBST XB=420.0,422.0,418.0,420.0,380,478.75540199999995 SURF_ID='surf1' /
&OBST XB=420.0,422.0,419.0,421.0,380,478.75540199999995 SURF_ID='surf1' /
&OBST XB=420.0,422.0,420.0,422.0,380,479.61007699999993 SURF_ID='surf1' /
&OBST XB=420.0,422.0,421.0,423.0,380,479.61007699999993 SURF_ID='surf1' /
&OBST XB=420.0,422.0,422.0,424.0,380,480.81811500000003 SURF_ID='surf1' /
&OBST XB=420.0,422.0,423.0,425.0,380,480.81811500000003 SURF_ID='surf1' /
&OBST XB=420.0,422.0,424.0,426.0,380,482.24334699999997 SURF_ID='surf1' /
&OBST XB=420.0,422.0,425.0,427.0,380,482.24334699999997 SURF_ID='surf1' /
&OBST XB=420.0,422.0,426.0,428.0,380,483.52578700000004 SURF_ID='surf1' /
&OBST XB=420.0,422.0,427.0,429.0,380,483.52578700000004 SURF_ID='surf1' /
&OBST XB=420.0,422.0,428.0,430.0,380,484.80908200000016 SURF_ID='surf1' /
&OBST XB=420.0,422.0,429.0,431.0,380,484.80908200000016 SURF_ID='surf1' /
&OBST XB=420.0,422.0,430.0,432.0,380,486.20748899999995 SURF_ID='surf1' /
&OBST XB=420.0,422.0,431.0,433.0,380,486.20748899999995 SURF_ID='surf1' /
&OBST XB=420.0,422.0,432.0,434.0,380,487.274109 SURF_ID='surf1' /
&OBST XB=420.0,422.0,433.0,435.0,380,487.274109 SURF_ID='surf1' /
&OBST XB=420.0,422.0,434.0,436.0,380,488.13217199999997 SURF_ID='surf1' /
&OBST XB=420.0,422.0,435.0,437.0,380,488.13217199999997 SURF_ID='surf1' /
&OBST XB=420.0,422.0,436.0,438.0,380,489.085144 SURF_ID='surf1' /
&OBST XB=420.0,422.0,437.0,439.0,380,489.085144 SURF_ID='surf1' /
&OBST XB=420.0,422.0,438.0,440.0,380,490.038086 SURF_ID='surf1' /
&OBST XB=420.0,422.0,439.0,441.0,380,490.038086 SURF_ID='surf1' /
&OBST XB=420.0,422.0,440.0,442.0,380,490.89614900000004 SURF_ID='surf1' /
&OBST XB=420.0,422.0,441.0,443.0,380,490.89614900000004 SURF_ID='surf1' /
&OBST XB=420.0,422.0,442.0,444.0,380,491.906281 SURF_ID='surf1' /
&OBST XB=420.0,422.0,443.0,445.0,380,491.906281 SURF_ID='surf1' /
&OBST XB=420.0,422.0,444.0,446.0,380,493.188171 SURF_ID='surf1' /
&OBST XB=420.0,422.0,445.0,447.0,380,493.188171 SURF_ID='surf1' /
&OBST XB=420.0,422.0,446.0,448.0,380,494.36358600000005 SURF_ID='surf1' /
&OBST XB=420.0,422.0,447.0,449.0,380,494.36358600000005 SURF_ID='surf1' /
&OBST XB=420.0,422.0,448.0,450.0,380,495.538147 SURF_ID='surf1' /
&OBST XB=420.0,422.0,449.0,451.0,380,495.538147 SURF_ID='surf1' /
&OBST XB=420.0,422.0,450.0,452.0,380,496.84353600000003 SURF_ID='surf1' /
&OBST XB=420.0,422.0,451.0,453.0,380,496.84353600000003 SURF_ID='surf1' /
&OBST XB=420.0,422.0,452.0,454.0,380,498.12023899999997 SURF_ID='surf1' /
&OBST XB=420.0,422.0,453.0,455.0,380,498.12023899999997 SURF_ID='surf1' /
&OBST XB=420.0,422.0,454.0,456.0,380,499.23703 SURF_ID='surf1' /
&OBST XB=420.0,422.0,455.0,457.0,380,499.23703 SURF_ID='surf1' /
&OBST XB=420.0,422.0,456.0,458.0,380,500.34680199999997 SURF_ID='surf1' /
&OBST XB=420.0,422.0,457.0,459.0,380,500.34680199999997 SURF_ID='surf1' /
&OBST XB=420.0,422.0,458.0,460.0,380,501.579346 SURF_ID='surf1' /
&OBST XB=420.0,422.0,459.0,461.0,380,501.579346 SURF_ID='surf1' /
&OBST XB=420.0,422.0,460.0,462.0,380,502.688416 SURF_ID='surf1' /
&OBST XB=421.0,423.0,260.0,262.0,380,435.296143 SURF_ID='surf1' /
&OBST XB=421.0,423.0,261.0,263.0,380,435.296143 SURF_ID='surf1' /
&OBST XB=421.0,423.0,262.0,264.0,380,435.51998899999995 SURF_ID='surf1' /
&OBST XB=421.0,423.0,263.0,265.0,380,435.51998899999995 SURF_ID='surf1' /
&OBST XB=421.0,423.0,264.0,266.0,380,435.72143600000004 SURF_ID='surf1' /
&OBST XB=421.0,423.0,265.0,267.0,380,435.72143600000004 SURF_ID='surf1' /
&OBST XB=421.0,423.0,266.0,268.0,380,435.81228600000003 SURF_ID='surf1' /
&OBST XB=421.0,423.0,267.0,269.0,380,435.81228600000003 SURF_ID='surf1' /
&OBST XB=421.0,423.0,268.0,270.0,380,435.64196799999996 SURF_ID='surf1' /
&OBST XB=421.0,423.0,269.0,271.0,380,435.64196799999996 SURF_ID='surf1' /
&OBST XB=421.0,423.0,270.0,272.0,380,435.332855 SURF_ID='surf1' /
&OBST XB=421.0,423.0,271.0,273.0,380,435.332855 SURF_ID='surf1' /
&OBST XB=421.0,423.0,272.0,274.0,380,435.02359 SURF_ID='surf1' /
&OBST XB=421.0,423.0,273.0,275.0,380,435.02359 SURF_ID='surf1' /
&OBST XB=421.0,423.0,274.0,276.0,380,434.679901 SURF_ID='surf1' /
&OBST XB=421.0,423.0,275.0,277.0,380,434.679901 SURF_ID='surf1' /
&OBST XB=421.0,423.0,276.0,278.0,380,434.366364 SURF_ID='surf1' /
&OBST XB=421.0,423.0,277.0,279.0,380,434.366364 SURF_ID='surf1' /
&OBST XB=421.0,423.0,278.0,280.0,380,434.15911900000003 SURF_ID='surf1' /
&OBST XB=421.0,423.0,279.0,281.0,380,434.15911900000003 SURF_ID='surf1' /
&OBST XB=421.0,423.0,280.0,282.0,380,434.011719 SURF_ID='surf1' /
&OBST XB=421.0,423.0,281.0,283.0,380,434.011719 SURF_ID='surf1' /
&OBST XB=421.0,423.0,282.0,284.0,380,433.8479 SURF_ID='surf1' /
&OBST XB=421.0,423.0,283.0,285.0,380,433.8479 SURF_ID='surf1' /
&OBST XB=421.0,423.0,284.0,286.0,380,433.700378 SURF_ID='surf1' /
&OBST XB=421.0,423.0,285.0,287.0,380,433.700378 SURF_ID='surf1' /
&OBST XB=421.0,423.0,286.0,288.0,380,433.597046 SURF_ID='surf1' /
&OBST XB=421.0,423.0,287.0,289.0,380,433.597046 SURF_ID='surf1' /
&OBST XB=421.0,423.0,288.0,290.0,380,434.0251769999999 SURF_ID='surf1' /
&OBST XB=421.0,423.0,289.0,291.0,380,434.0251769999999 SURF_ID='surf1' /
&OBST XB=421.0,423.0,290.0,292.0,380,434.95651200000003 SURF_ID='surf1' /
&OBST XB=421.0,423.0,291.0,293.0,380,434.95651200000003 SURF_ID='surf1' /
&OBST XB=421.0,423.0,292.0,294.0,380,435.79455599999994 SURF_ID='surf1' /
&OBST XB=421.0,423.0,293.0,295.0,380,435.79455599999994 SURF_ID='surf1' /
&OBST XB=421.0,423.0,294.0,296.0,380,436.63311799999997 SURF_ID='surf1' /
&OBST XB=421.0,423.0,295.0,297.0,380,436.63311799999997 SURF_ID='surf1' /
&OBST XB=421.0,423.0,296.0,298.0,380,437.563446 SURF_ID='surf1' /
&OBST XB=421.0,423.0,297.0,299.0,380,437.563446 SURF_ID='surf1' /
&OBST XB=421.0,423.0,298.0,300.0,380,438.35281399999997 SURF_ID='surf1' /
&OBST XB=421.0,423.0,299.0,301.0,380,438.35281399999997 SURF_ID='surf1' /
&OBST XB=421.0,423.0,300.0,302.0,380,439.08410599999996 SURF_ID='surf1' /
&OBST XB=421.0,423.0,301.0,303.0,380,439.08410599999996 SURF_ID='surf1' /
&OBST XB=421.0,423.0,302.0,304.0,380,439.896301 SURF_ID='surf1' /
&OBST XB=421.0,423.0,303.0,305.0,380,439.896301 SURF_ID='surf1' /
&OBST XB=421.0,423.0,304.0,306.0,380,440.708466 SURF_ID='surf1' /
&OBST XB=421.0,423.0,305.0,307.0,380,440.708466 SURF_ID='surf1' /
&OBST XB=421.0,423.0,306.0,308.0,380,441.439758 SURF_ID='surf1' /
&OBST XB=421.0,423.0,307.0,309.0,380,441.439758 SURF_ID='surf1' /
&OBST XB=421.0,423.0,308.0,310.0,380,442.18426500000004 SURF_ID='surf1' /
&OBST XB=421.0,423.0,309.0,311.0,380,442.18426500000004 SURF_ID='surf1' /
&OBST XB=421.0,423.0,310.0,312.0,380,443.027283 SURF_ID='surf1' /
&OBST XB=421.0,423.0,311.0,313.0,380,443.027283 SURF_ID='surf1' /
&OBST XB=421.0,423.0,312.0,314.0,380,443.873688 SURF_ID='surf1' /
&OBST XB=421.0,423.0,313.0,315.0,380,443.873688 SURF_ID='surf1' /
&OBST XB=421.0,423.0,314.0,316.0,380,444.63534500000003 SURF_ID='surf1' /
&OBST XB=421.0,423.0,315.0,317.0,380,444.63534500000003 SURF_ID='surf1' /
&OBST XB=421.0,423.0,316.0,318.0,380,445.397491 SURF_ID='surf1' /
&OBST XB=421.0,423.0,317.0,319.0,380,445.397491 SURF_ID='surf1' /
&OBST XB=421.0,423.0,318.0,320.0,380,446.28283700000003 SURF_ID='surf1' /
&OBST XB=421.0,423.0,319.0,321.0,380,446.28283700000003 SURF_ID='surf1' /
&OBST XB=421.0,423.0,320.0,322.0,380,447.12634299999996 SURF_ID='surf1' /
&OBST XB=421.0,423.0,321.0,323.0,380,447.12634299999996 SURF_ID='surf1' /
&OBST XB=421.0,423.0,322.0,324.0,380,447.98501600000003 SURF_ID='surf1' /
&OBST XB=421.0,423.0,323.0,325.0,380,447.98501600000003 SURF_ID='surf1' /
&OBST XB=421.0,423.0,324.0,326.0,380,448.93865999999997 SURF_ID='surf1' /
&OBST XB=421.0,423.0,325.0,327.0,380,448.93865999999997 SURF_ID='surf1' /
&OBST XB=421.0,423.0,326.0,328.0,380,449.892303 SURF_ID='surf1' /
&OBST XB=421.0,423.0,327.0,329.0,380,449.892303 SURF_ID='surf1' /
&OBST XB=421.0,423.0,328.0,330.0,380,450.769287 SURF_ID='surf1' /
&OBST XB=421.0,423.0,329.0,331.0,380,450.769287 SURF_ID='surf1' /
&OBST XB=421.0,423.0,330.0,332.0,380,451.68585199999995 SURF_ID='surf1' /
&OBST XB=421.0,423.0,331.0,333.0,380,451.68585199999995 SURF_ID='surf1' /
&OBST XB=421.0,423.0,332.0,334.0,380,452.71929900000003 SURF_ID='surf1' /
&OBST XB=421.0,423.0,333.0,335.0,380,452.71929900000003 SURF_ID='surf1' /
&OBST XB=421.0,423.0,334.0,336.0,380,453.649292 SURF_ID='surf1' /
&OBST XB=421.0,423.0,335.0,337.0,380,453.649292 SURF_ID='surf1' /
&OBST XB=421.0,423.0,336.0,338.0,380,454.57867400000003 SURF_ID='surf1' /
&OBST XB=421.0,423.0,337.0,339.0,380,454.57867400000003 SURF_ID='surf1' /
&OBST XB=421.0,423.0,338.0,340.0,380,455.619171 SURF_ID='surf1' /
&OBST XB=421.0,423.0,339.0,341.0,380,455.619171 SURF_ID='surf1' /
&OBST XB=421.0,423.0,340.0,342.0,380,456.67929100000003 SURF_ID='surf1' /
&OBST XB=421.0,423.0,341.0,343.0,380,456.67929100000003 SURF_ID='surf1' /
&OBST XB=421.0,423.0,342.0,344.0,380,457.643372 SURF_ID='surf1' /
&OBST XB=421.0,423.0,343.0,345.0,380,457.643372 SURF_ID='surf1' /
&OBST XB=421.0,423.0,344.0,346.0,380,458.607422 SURF_ID='surf1' /
&OBST XB=421.0,423.0,345.0,347.0,380,458.607422 SURF_ID='surf1' /
&OBST XB=421.0,423.0,346.0,348.0,380,459.67810099999997 SURF_ID='surf1' /
&OBST XB=421.0,423.0,347.0,349.0,380,459.67810099999997 SURF_ID='surf1' /
&OBST XB=421.0,423.0,348.0,350.0,380,460.64010599999995 SURF_ID='surf1' /
&OBST XB=421.0,423.0,349.0,351.0,380,460.64010599999995 SURF_ID='surf1' /
&OBST XB=421.0,423.0,350.0,352.0,380,461.59326200000004 SURF_ID='surf1' /
&OBST XB=421.0,423.0,351.0,353.0,380,461.59326200000004 SURF_ID='surf1' /
&OBST XB=421.0,423.0,352.0,354.0,380,462.64565999999996 SURF_ID='surf1' /
&OBST XB=421.0,423.0,353.0,355.0,380,462.64565999999996 SURF_ID='surf1' /
&OBST XB=421.0,423.0,354.0,356.0,380,463.69809000000004 SURF_ID='surf1' /
&OBST XB=421.0,423.0,355.0,357.0,380,463.69809000000004 SURF_ID='surf1' /
&OBST XB=421.0,423.0,356.0,358.0,380,464.64514199999996 SURF_ID='surf1' /
&OBST XB=421.0,423.0,357.0,359.0,380,464.64514199999996 SURF_ID='surf1' /
&OBST XB=421.0,423.0,358.0,360.0,380,465.579956 SURF_ID='surf1' /
&OBST XB=421.0,423.0,359.0,361.0,380,465.579956 SURF_ID='surf1' /
&OBST XB=421.0,423.0,360.0,362.0,380,466.501984 SURF_ID='surf1' /
&OBST XB=421.0,423.0,361.0,363.0,380,466.501984 SURF_ID='surf1' /
&OBST XB=421.0,423.0,362.0,364.0,380,467.236389 SURF_ID='surf1' /
&OBST XB=421.0,423.0,363.0,365.0,380,467.236389 SURF_ID='surf1' /
&OBST XB=421.0,423.0,364.0,366.0,380,467.970764 SURF_ID='surf1' /
&OBST XB=421.0,423.0,365.0,367.0,380,467.970764 SURF_ID='surf1' /
&OBST XB=421.0,423.0,366.0,368.0,380,468.786896 SURF_ID='surf1' /
&OBST XB=421.0,423.0,367.0,369.0,380,468.786896 SURF_ID='surf1' /
&OBST XB=421.0,423.0,368.0,370.0,380,469.58917199999996 SURF_ID='surf1' /
&OBST XB=421.0,423.0,369.0,371.0,380,469.58917199999996 SURF_ID='surf1' /
&OBST XB=421.0,423.0,370.0,372.0,380,470.066498 SURF_ID='surf1' /
&OBST XB=421.0,423.0,371.0,373.0,380,470.066498 SURF_ID='surf1' /
&OBST XB=421.0,423.0,372.0,374.0,380,470.253479 SURF_ID='surf1' /
&OBST XB=421.0,423.0,373.0,375.0,380,470.253479 SURF_ID='surf1' /
&OBST XB=421.0,423.0,374.0,376.0,380,470.46124299999997 SURF_ID='surf1' /
&OBST XB=421.0,423.0,375.0,377.0,380,470.46124299999997 SURF_ID='surf1' /
&OBST XB=421.0,423.0,376.0,378.0,380,470.648224 SURF_ID='surf1' /
&OBST XB=421.0,423.0,377.0,379.0,380,470.648224 SURF_ID='surf1' /
&OBST XB=421.0,423.0,378.0,380.0,380,470.835205 SURF_ID='surf1' /
&OBST XB=421.0,423.0,379.0,381.0,380,470.835205 SURF_ID='surf1' /
&OBST XB=421.0,423.0,380.0,382.0,380,470.94320700000003 SURF_ID='surf1' /
&OBST XB=421.0,423.0,381.0,383.0,380,470.94320700000003 SURF_ID='surf1' /
&OBST XB=421.0,423.0,382.0,384.0,380,470.924988 SURF_ID='surf1' /
&OBST XB=421.0,423.0,383.0,385.0,380,470.924988 SURF_ID='surf1' /
&OBST XB=421.0,423.0,384.0,386.0,380,470.884735 SURF_ID='surf1' /
&OBST XB=421.0,423.0,385.0,387.0,380,470.884735 SURF_ID='surf1' /
&OBST XB=421.0,423.0,386.0,388.0,380,470.844482 SURF_ID='surf1' /
&OBST XB=421.0,423.0,387.0,389.0,380,470.844482 SURF_ID='surf1' /
&OBST XB=421.0,423.0,388.0,390.0,380,470.799774 SURF_ID='surf1' /
&OBST XB=421.0,423.0,389.0,391.0,380,470.799774 SURF_ID='surf1' /
&OBST XB=421.0,423.0,390.0,392.0,380,470.8638 SURF_ID='surf1' /
&OBST XB=421.0,423.0,391.0,393.0,380,470.8638 SURF_ID='surf1' /
&OBST XB=421.0,423.0,392.0,394.0,380,471.122437 SURF_ID='surf1' /
&OBST XB=421.0,423.0,393.0,395.0,380,471.122437 SURF_ID='surf1' /
&OBST XB=421.0,423.0,394.0,396.0,380,471.467041 SURF_ID='surf1' /
&OBST XB=421.0,423.0,395.0,397.0,380,471.467041 SURF_ID='surf1' /
&OBST XB=421.0,423.0,396.0,398.0,380,471.81185899999997 SURF_ID='surf1' /
&OBST XB=421.0,423.0,397.0,399.0,380,471.81185899999997 SURF_ID='surf1' /
&OBST XB=421.0,423.0,398.0,400.0,380,472.12213099999997 SURF_ID='surf1' /
&OBST XB=421.0,423.0,399.0,401.0,380,472.12213099999997 SURF_ID='surf1' /
&OBST XB=421.0,423.0,400.0,402.0,380,472.500946 SURF_ID='surf1' /
&OBST XB=421.0,423.0,401.0,403.0,380,472.500946 SURF_ID='surf1' /
&OBST XB=421.0,423.0,402.0,404.0,380,473.05627400000003 SURF_ID='surf1' /
&OBST XB=421.0,423.0,403.0,405.0,380,473.05627400000003 SURF_ID='surf1' /
&OBST XB=421.0,423.0,404.0,406.0,380,473.62252800000016 SURF_ID='surf1' /
&OBST XB=421.0,423.0,405.0,407.0,380,473.62252800000016 SURF_ID='surf1' /
&OBST XB=421.0,423.0,406.0,408.0,380,474.18908700000003 SURF_ID='surf1' /
&OBST XB=421.0,423.0,407.0,409.0,380,474.18908700000003 SURF_ID='surf1' /
&OBST XB=421.0,423.0,408.0,410.0,380,474.81872599999997 SURF_ID='surf1' /
&OBST XB=421.0,423.0,409.0,411.0,380,474.81872599999997 SURF_ID='surf1' /
&OBST XB=421.0,423.0,410.0,412.0,380,475.505951 SURF_ID='surf1' /
&OBST XB=421.0,423.0,411.0,413.0,380,475.505951 SURF_ID='surf1' /
&OBST XB=421.0,423.0,412.0,414.0,380,476.23800700000004 SURF_ID='surf1' /
&OBST XB=421.0,423.0,413.0,415.0,380,476.23800700000004 SURF_ID='surf1' /
&OBST XB=421.0,423.0,414.0,416.0,380,477.046936 SURF_ID='surf1' /
&OBST XB=421.0,423.0,415.0,417.0,380,477.046936 SURF_ID='surf1' /
&OBST XB=421.0,423.0,416.0,418.0,380,477.94592300000005 SURF_ID='surf1' /
&OBST XB=421.0,423.0,417.0,419.0,380,477.94592300000005 SURF_ID='surf1' /
&OBST XB=421.0,423.0,418.0,420.0,380,478.75540199999995 SURF_ID='surf1' /
&OBST XB=421.0,423.0,419.0,421.0,380,478.75540199999995 SURF_ID='surf1' /
&OBST XB=421.0,423.0,420.0,422.0,380,479.61007699999993 SURF_ID='surf1' /
&OBST XB=421.0,423.0,421.0,423.0,380,479.61007699999993 SURF_ID='surf1' /
&OBST XB=421.0,423.0,422.0,424.0,380,480.81811500000003 SURF_ID='surf1' /
&OBST XB=421.0,423.0,423.0,425.0,380,480.81811500000003 SURF_ID='surf1' /
&OBST XB=421.0,423.0,424.0,426.0,380,482.24334699999997 SURF_ID='surf1' /
&OBST XB=421.0,423.0,425.0,427.0,380,482.24334699999997 SURF_ID='surf1' /
&OBST XB=421.0,423.0,426.0,428.0,380,483.52578700000004 SURF_ID='surf1' /
&OBST XB=421.0,423.0,427.0,429.0,380,483.52578700000004 SURF_ID='surf1' /
&OBST XB=421.0,423.0,428.0,430.0,380,484.80908200000016 SURF_ID='surf1' /
&OBST XB=421.0,423.0,429.0,431.0,380,484.80908200000016 SURF_ID='surf1' /
&OBST XB=421.0,423.0,430.0,432.0,380,486.20748899999995 SURF_ID='surf1' /
&OBST XB=421.0,423.0,431.0,433.0,380,486.20748899999995 SURF_ID='surf1' /
&OBST XB=421.0,423.0,432.0,434.0,380,487.274109 SURF_ID='surf1' /
&OBST XB=421.0,423.0,433.0,435.0,380,487.274109 SURF_ID='surf1' /
&OBST XB=421.0,423.0,434.0,436.0,380,488.13217199999997 SURF_ID='surf1' /
&OBST XB=421.0,423.0,435.0,437.0,380,488.13217199999997 SURF_ID='surf1' /
&OBST XB=421.0,423.0,436.0,438.0,380,489.085144 SURF_ID='surf1' /
&OBST XB=421.0,423.0,437.0,439.0,380,489.085144 SURF_ID='surf1' /
&OBST XB=421.0,423.0,438.0,440.0,380,490.038086 SURF_ID='surf1' /
&OBST XB=421.0,423.0,439.0,441.0,380,490.038086 SURF_ID='surf1' /
&OBST XB=421.0,423.0,440.0,442.0,380,490.89614900000004 SURF_ID='surf1' /
&OBST XB=421.0,423.0,441.0,443.0,380,490.89614900000004 SURF_ID='surf1' /
&OBST XB=421.0,423.0,442.0,444.0,380,491.906281 SURF_ID='surf1' /
&OBST XB=421.0,423.0,443.0,445.0,380,491.906281 SURF_ID='surf1' /