&HEAD CHID='Region2_cat', TITLE='Concatenated : Simulation of Chimney Tops fire', FYI='' /

&MESH IJK=25,25,15, XB=450,550.0,270,370.0,380,440.0, MULT_ID='mesh' /
&MULT ID='mesh', DX=100.0, DY=100.0, DZ=60.0, I_LOWER=0, I_UPPER=1, J_LOWER=0, J_UPPER=1, K_UPPER=3 /

&MISC TMPA=30., TERRAIN_CASE=.TRUE., TERRAIN_IMAGE='Region2.png', VERBOSE=.TRUE., RESTART=.FALSE., PROJECTION=.TRUE.  /
&TIME T_BEGIN = 60.0, T_END = 120.0 /

&DUMP NFRAMES=120, DT_PART=100., CFL_FILE=.TRUE., DT_PL3D=60.0 /
&WIND DIRECTION=135., SPEED=5., SPONGE_CELLS=0, STRATIFICATION=.FALSE. /

&SLCF XB=450,650,270,470,380,620, QUANTITY='HRRPUV', CELL_CENTERED=.TRUE. /



&RAMP ID='fire', T= 60, F=1. /
&RAMP ID='fire', T= 65.0, F=1. /
&RAMP ID='fire', T= 70.0, F=0. /
&VENT MB='XMIN', SURF_ID='OPEN' /
&VENT MB='XMAX', SURF_ID='OPEN' /
&VENT MB='YMIN', SURF_ID='OPEN' /
&VENT MB='YMAX', SURF_ID='OPEN' /
&VENT MB='ZMAX', SURF_ID='OPEN' /

&REAC FUEL='CELLULOSE', C=6, H=10, O=5, SOOT_YIELD=0.005 /

&SPEC ID='WATER VAPOR' /

&SURF ID                        = 'grass'
      MATL_ID(1,1:2)            = 'GENERIC VEGETATION','MOISTURE'
      MATL_MASS_FRACTION(1,1:2) = 0.937,0.063
      THICKNESS                 = 0.0002
      LENGTH                    = 0.21
      HEAT_TRANSFER_COEFFICIENT = 30.
      GEOMETRY                  = 'CYLINDRICAL' /

&SURF ID                        = 'needles'
      MATL_ID(1,1:2)            = 'GENERIC VEGETATION','MOISTURE'
      MATL_MASS_FRACTION(1,1:2) = 0.95,0.05
      THICKNESS                 = 0.02
      LENGTH                    = 0.21
      HEAT_TRANSFER_COEFFICIENT = 30.
      GEOMETRY                  = 'CYLINDRICAL' /

&MATL ID = 'GENERIC VEGETATION'
      DENSITY = 500.
      CONDUCTIVITY = 0.1
      SPECIFIC_HEAT= 1.5
      REFERENCE_TEMPERATURE = 200
      PYROLYSIS_RANGE = 30.
      NU_MATL = 0.2
      NU_SPEC = 0.8
      SPEC_ID = 'CELLULOSE'
      HEAT_OF_COMBUSTION = 15600.
      HEAT_OF_REACTION = 418.
      MATL_ID  = 'CHAR' /

&MATL ID = 'MOISTURE'
      DENSITY = 1000.
      CONDUCTIVITY = 0.1
      SPECIFIC_HEAT= 4.184
      REFERENCE_TEMPERATURE = 100.
      PYROLYSIS_RANGE = 10.
      NU_SPEC = 1.0
      SPEC_ID = 'WATER VAPOR'
      HEAT_OF_REACTION = 2500./

&MATL ID = 'CHAR'
      DENSITY  = 100.
      CONDUCTIVITY = 0.1
      SPECIFIC_HEAT = 1.0 /

&MATL ID='DIRT'
      CONDUCTIVITY = 0.25
      SPECIFIC_HEAT = 2.
     DENSITY = 1300. /

&PART ID='foliage', DRAG_COEFFICIENT=1.0, SURF_ID='needles', SAMPLING_FACTOR=5,
      QUANTITIES='PARTICLE TEMPERATURE','PARTICLE MASS','PARTICLE DIAMETER', STATIC=.TRUE., COLOR='GREEN' /

&PART ID='grass', DRAG_COEFFICIENT=1.0, SURF_ID='grass', SAMPLING_FACTOR=958,
      QUANTITIES='PARTICLE TEMPERATURE','PARTICLE MASS','PARTICLE DIAMETER', STATIC=.TRUE., COLOR='BROWN' /

&SURF ID = 'surf1', RGB = 122,117,48, MATL_ID='DIRT', THICKNESS=0.2, PART_ID='grass', PARTICLE_SURFACE_DENSITY=1.0 /
&SURF ID = 'surf2', RGB = 0,100,0, MATL_ID='DIRT', THICKNESS=0.2 /

&OBST XB=450.0,454.0,270.0,274.0,380,424.482971 SURF_ID='surf1' /
&OBST XB=450.0,454.0,271.0,275.0,380,424.482971 SURF_ID='surf1' /
&OBST XB=450.0,454.0,272.0,276.0,380,425.26330599999994 SURF_ID='surf1' /
&OBST XB=450.0,454.0,273.0,277.0,380,425.26330599999994 SURF_ID='surf1' /
&OBST XB=450.0,454.0,274.0,278.0,380,426.13049299999994 SURF_ID='surf1' /
&OBST XB=450.0,454.0,275.0,279.0,380,426.13049299999994 SURF_ID='surf1' /
&OBST XB=450.0,454.0,276.0,280.0,380,426.99282800000003 SURF_ID='surf1' /
&OBST XB=450.0,454.0,277.0,281.0,380,426.99282800000003 SURF_ID='surf1' /
&OBST XB=450.0,454.0,278.0,282.0,380,427.756866 SURF_ID='surf1' /
&OBST XB=450.0,454.0,279.0,283.0,380,427.756866 SURF_ID='surf1' /
&OBST XB=450.0,454.0,280.0,284.0,380,428.51086399999997 SURF_ID='surf1' /
&OBST XB=450.0,454.0,281.0,285.0,380,428.51086399999997 SURF_ID='surf1' /
&OBST XB=450.0,454.0,282.0,286.0,380,429.348755 SURF_ID='surf1' /
&OBST XB=450.0,454.0,283.0,287.0,380,429.348755 SURF_ID='surf1' /
&OBST XB=450.0,454.0,284.0,288.0,380,430.10321 SURF_ID='surf1' /
&OBST XB=450.0,454.0,285.0,289.0,380,430.10321 SURF_ID='surf1' /
&OBST XB=450.0,454.0,286.0,290.0,380,430.861908 SURF_ID='surf1' /
&OBST XB=450.0,454.0,287.0,291.0,380,430.861908 SURF_ID='surf1' /
&OBST XB=450.0,454.0,288.0,292.0,380,431.75708 SURF_ID='surf1' /
&OBST XB=450.0,454.0,289.0,293.0,380,431.75708 SURF_ID='surf1' /
&OBST XB=450.0,454.0,290.0,294.0,380,432.699951 SURF_ID='surf1' /
&OBST XB=450.0,454.0,291.0,295.0,380,432.699951 SURF_ID='surf1' /
&OBST XB=450.0,454.0,292.0,296.0,380,433.54834000000005 SURF_ID='surf1' /
&OBST XB=450.0,454.0,293.0,297.0,380,433.54834000000005 SURF_ID='surf1' /
&OBST XB=450.0,454.0,294.0,298.0,380,434.39727800000003 SURF_ID='surf1' /
&OBST XB=450.0,454.0,295.0,299.0,380,434.39727800000003 SURF_ID='surf1' /
&OBST XB=450.0,454.0,296.0,300.0,380,435.342468 SURF_ID='surf1' /
&OBST XB=450.0,454.0,297.0,301.0,380,435.342468 SURF_ID='surf1' /
&OBST XB=450.0,454.0,298.0,302.0,380,436.247192 SURF_ID='surf1' /
&OBST XB=450.0,454.0,299.0,303.0,380,436.247192 SURF_ID='surf1' /
&OBST XB=450.0,454.0,300.0,304.0,380,437.217743 SURF_ID='surf1' /
&OBST XB=450.0,454.0,301.0,305.0,380,437.217743 SURF_ID='surf1' /
&OBST XB=450.0,454.0,302.0,306.0,380,438.295654 SURF_ID='surf1' /
&OBST XB=450.0,454.0,303.0,307.0,380,438.295654 SURF_ID='surf1' /
&OBST XB=450.0,454.0,304.0,308.0,380,439.373596 SURF_ID='surf1' /
&OBST XB=450.0,454.0,305.0,309.0,380,439.373596 SURF_ID='surf1' /
&OBST XB=450.0,454.0,306.0,310.0,380,440.34411600000004 SURF_ID='surf1' /
&OBST XB=450.0,454.0,307.0,311.0,380,440.34411600000004 SURF_ID='surf1' /
&OBST XB=450.0,454.0,308.0,312.0,380,441.321411 SURF_ID='surf1' /
&OBST XB=450.0,454.0,309.0,313.0,380,441.321411 SURF_ID='surf1' /
&OBST XB=450.0,454.0,310.0,314.0,380,442.41552699999994 SURF_ID='surf1' /
&OBST XB=450.0,454.0,311.0,315.0,380,442.41552699999994 SURF_ID='surf1' /
&OBST XB=450.0,454.0,312.0,316.0,380,443.51095599999996 SURF_ID='surf1' /
&OBST XB=450.0,454.0,313.0,317.0,380,443.51095599999996 SURF_ID='surf1' /
&OBST XB=450.0,454.0,314.0,318.0,380,444.49667400000004 SURF_ID='surf1' /
&OBST XB=450.0,454.0,315.0,319.0,380,444.49667400000004 SURF_ID='surf1' /
&OBST XB=450.0,454.0,316.0,320.0,380,445.48303200000004 SURF_ID='surf1' /
&OBST XB=450.0,454.0,317.0,321.0,380,445.48303200000004 SURF_ID='surf1' /
&OBST XB=450.0,454.0,318.0,322.0,380,446.49768099999994 SURF_ID='surf1' /
&OBST XB=450.0,454.0,319.0,323.0,380,446.49768099999994 SURF_ID='surf1' /
&OBST XB=450.0,454.0,320.0,324.0,380,447.311768 SURF_ID='surf1' /
&OBST XB=450.0,454.0,321.0,325.0,380,447.311768 SURF_ID='surf1' /
&OBST XB=450.0,454.0,322.0,326.0,380,448.093658 SURF_ID='surf1' /
&OBST XB=450.0,454.0,323.0,327.0,380,448.093658 SURF_ID='surf1' /
&OBST XB=450.0,454.0,324.0,328.0,380,448.962006 SURF_ID='surf1' /
&OBST XB=450.0,454.0,325.0,329.0,380,448.962006 SURF_ID='surf1' /
&OBST XB=450.0,454.0,326.0,330.0,380,449.830383 SURF_ID='surf1' /
&OBST XB=450.0,454.0,327.0,331.0,380,449.830383 SURF_ID='surf1' /
&OBST XB=450.0,454.0,328.0,332.0,380,450.563782 SURF_ID='surf1' /
&OBST XB=450.0,454.0,329.0,333.0,380,450.563782 SURF_ID='surf1' /
&OBST XB=450.0,454.0,330.0,334.0,380,451.19207800000004 SURF_ID='surf1' /
&OBST XB=450.0,454.0,331.0,335.0,380,451.19207800000004 SURF_ID='surf1' /
&OBST XB=450.0,454.0,332.0,336.0,380,451.85083 SURF_ID='surf1' /
&OBST XB=450.0,454.0,333.0,337.0,380,451.85083 SURF_ID='surf1' /
&OBST XB=450.0,454.0,334.0,338.0,380,452.443665 SURF_ID='surf1' /
&OBST XB=450.0,454.0,335.0,339.0,380,452.443665 SURF_ID='surf1' /
&OBST XB=450.0,454.0,336.0,340.0,380,453.03610199999997 SURF_ID='surf1' /
&OBST XB=450.0,454.0,337.0,341.0,380,453.03610199999997 SURF_ID='surf1' /
&OBST XB=450.0,454.0,338.0,342.0,380,453.71063200000003 SURF_ID='surf1' /
&OBST XB=450.0,454.0,339.0,343.0,380,453.71063200000003 SURF_ID='surf1' /
&OBST XB=450.0,454.0,340.0,344.0,380,454.42520099999996 SURF_ID='surf1' /
&OBST XB=450.0,454.0,341.0,345.0,380,454.42520099999996 SURF_ID='surf1' /
&OBST XB=450.0,454.0,342.0,346.0,380,455.08941699999997 SURF_ID='surf1' /
&OBST XB=450.0,454.0,343.0,347.0,380,455.08941699999997 SURF_ID='surf1' /
&OBST XB=450.0,454.0,344.0,348.0,380,455.753601 SURF_ID='surf1' /
&OBST XB=450.0,454.0,345.0,349.0,380,455.753601 SURF_ID='surf1' /
&OBST XB=450.0,454.0,346.0,350.0,380,456.491211 SURF_ID='surf1' /
&OBST XB=450.0,454.0,347.0,351.0,380,456.491211 SURF_ID='surf1' /
&OBST XB=450.0,454.0,348.0,352.0,380,457.152405 SURF_ID='surf1' /
&OBST XB=450.0,454.0,349.0,353.0,380,457.152405 SURF_ID='surf1' /
&OBST XB=450.0,454.0,350.0,354.0,380,457.797913 SURF_ID='surf1' /
&OBST XB=450.0,454.0,351.0,355.0,380,457.797913 SURF_ID='surf1' /
&OBST XB=450.0,454.0,352.0,356.0,380,458.503571 SURF_ID='surf1' /
&OBST XB=450.0,454.0,353.0,357.0,380,458.503571 SURF_ID='surf1' /
&OBST XB=450.0,454.0,354.0,358.0,380,459.209259 SURF_ID='surf1' /
&OBST XB=450.0,454.0,355.0,359.0,380,459.209259 SURF_ID='surf1' /
&OBST XB=450.0,454.0,356.0,360.0,380,459.84423799999996 SURF_ID='surf1' /
&OBST XB=450.0,454.0,357.0,361.0,380,459.84423799999996 SURF_ID='surf1' /
&OBST XB=450.0,454.0,358.0,362.0,380,460.482422 SURF_ID='surf1' /
&OBST XB=450.0,454.0,359.0,363.0,380,460.482422 SURF_ID='surf1' /
&OBST XB=450.0,454.0,360.0,364.0,380,461.227417 SURF_ID='surf1' /
&OBST XB=450.0,454.0,361.0,365.0,380,461.227417 SURF_ID='surf1' /
&OBST XB=450.0,454.0,362.0,366.0,380,461.927612 SURF_ID='surf1' /
&OBST XB=450.0,454.0,363.0,367.0,380,461.927612 SURF_ID='surf1' /
&OBST XB=450.0,454.0,364.0,368.0,380,462.627777 SURF_ID='surf1' /
&OBST XB=450.0,454.0,365.0,369.0,380,462.627777 SURF_ID='surf1' /
&OBST XB=450.0,454.0,366.0,370.0,380,463.40588399999996 SURF_ID='surf1' /
&OBST XB=450.0,454.0,367.0,371.0,380,463.40588399999996 SURF_ID='surf1' /
&OBST XB=450.0,454.0,368.0,372.0,380,464.18338 SURF_ID='surf1' /
&OBST XB=450.0,454.0,369.0,373.0,380,464.18338 SURF_ID='surf1' /
&OBST XB=450.0,454.0,370.0,374.0,380,464.880737 SURF_ID='surf1' /
&OBST XB=450.0,454.0,371.0,375.0,380,464.880737 SURF_ID='surf1' /
&OBST XB=450.0,454.0,372.0,376.0,380,465.575989 SURF_ID='surf1' /
&OBST XB=450.0,454.0,373.0,377.0,380,465.575989 SURF_ID='surf1' /
&OBST XB=450.0,454.0,374.0,378.0,380,466.348572 SURF_ID='surf1' /
&OBST XB=450.0,454.0,375.0,379.0,380,466.348572 SURF_ID='surf1' /
&OBST XB=450.0,454.0,376.0,380.0,380,467.04382300000003 SURF_ID='surf1' /
&OBST XB=450.0,454.0,377.0,381.0,380,467.04382300000003 SURF_ID='surf1' /
&OBST XB=450.0,454.0,378.0,382.0,380,467.739075 SURF_ID='surf1' /
&OBST XB=450.0,454.0,379.0,383.0,380,467.739075 SURF_ID='surf1' /
&OBST XB=450.0,454.0,380.0,384.0,380,468.52093499999995 SURF_ID='surf1' /
&OBST XB=450.0,454.0,381.0,385.0,380,468.52093499999995 SURF_ID='surf1' /
&OBST XB=450.0,454.0,382.0,386.0,380,469.31518600000004 SURF_ID='surf1' /
&OBST XB=450.0,454.0,383.0,387.0,380,469.31518600000004 SURF_ID='surf1' /
&OBST XB=450.0,454.0,384.0,388.0,380,470.03268399999996 SURF_ID='surf1' /
&OBST XB=450.0,454.0,385.0,389.0,380,470.03268399999996 SURF_ID='surf1' /
&OBST XB=450.0,454.0,386.0,390.0,380,470.750183 SURF_ID='surf1' /
&OBST XB=450.0,454.0,387.0,391.0,380,470.750183 SURF_ID='surf1' /
&OBST XB=450.0,454.0,388.0,392.0,380,471.54748499999994 SURF_ID='surf1' /
&OBST XB=450.0,454.0,389.0,393.0,380,471.54748499999994 SURF_ID='surf1' /
&OBST XB=450.0,454.0,390.0,394.0,380,472.331085 SURF_ID='surf1' /
&OBST XB=450.0,454.0,391.0,395.0,380,472.331085 SURF_ID='surf1' /
&OBST XB=450.0,454.0,392.0,396.0,380,473.23760999999996 SURF_ID='surf1' /
&OBST XB=450.0,454.0,393.0,397.0,380,473.23760999999996 SURF_ID='surf1' /
&OBST XB=450.0,454.0,394.0,398.0,380,474.281311 SURF_ID='surf1' /
&OBST XB=450.0,454.0,395.0,399.0,380,474.281311 SURF_ID='surf1' /
&OBST XB=450.0,454.0,396.0,400.0,380,475.32562300000006 SURF_ID='surf1' /
&OBST XB=450.0,454.0,397.0,401.0,380,475.32562300000006 SURF_ID='surf1' /
&OBST XB=450.0,454.0,398.0,402.0,380,476.26538099999993 SURF_ID='surf1' /
&OBST XB=450.0,454.0,399.0,403.0,380,476.26538099999993 SURF_ID='surf1' /
&OBST XB=450.0,454.0,400.0,404.0,380,477.231567 SURF_ID='surf1' /
&OBST XB=450.0,454.0,401.0,405.0,380,477.231567 SURF_ID='surf1' /
&OBST XB=450.0,454.0,402.0,406.0,380,478.35650599999997 SURF_ID='surf1' /
&OBST XB=450.0,454.0,403.0,407.0,380,478.35650599999997 SURF_ID='surf1' /
&OBST XB=450.0,454.0,404.0,408.0,380,479.394379 SURF_ID='surf1' /
&OBST XB=450.0,454.0,405.0,409.0,380,479.394379 SURF_ID='surf1' /
&OBST XB=450.0,454.0,406.0,410.0,380,480.432953 SURF_ID='surf1' /
&OBST XB=450.0,454.0,407.0,411.0,380,480.432953 SURF_ID='surf1' /
&OBST XB=450.0,454.0,408.0,412.0,380,481.587067 SURF_ID='surf1' /
&OBST XB=450.0,454.0,409.0,413.0,380,481.587067 SURF_ID='surf1' /
&OBST XB=450.0,454.0,410.0,414.0,380,482.705688 SURF_ID='surf1' /
&OBST XB=450.0,454.0,411.0,415.0,380,482.705688 SURF_ID='surf1' /
&OBST XB=450.0,454.0,412.0,416.0,380,483.64221200000003 SURF_ID='surf1' /
&OBST XB=450.0,454.0,413.0,417.0,380,483.64221200000003 SURF_ID='surf1' /
&OBST XB=450.0,454.0,414.0,418.0,380,484.530426 SURF_ID='surf1' /
&OBST XB=450.0,454.0,415.0,419.0,380,484.530426 SURF_ID='surf1' /
&OBST XB=450.0,454.0,416.0,420.0,380,485.51754800000003 SURF_ID='surf1' /
&OBST XB=450.0,454.0,417.0,421.0,380,485.51754800000003 SURF_ID='surf1' /
&OBST XB=450.0,454.0,418.0,422.0,380,486.406372 SURF_ID='surf1' /
&OBST XB=450.0,454.0,419.0,423.0,380,486.406372 SURF_ID='surf1' /
&OBST XB=450.0,454.0,420.0,424.0,380,487.28854400000006 SURF_ID='surf1' /
&OBST XB=450.0,454.0,421.0,425.0,380,487.28854400000006 SURF_ID='surf1' /
&OBST XB=450.0,454.0,422.0,426.0,380,488.230896 SURF_ID='surf1' /
&OBST XB=450.0,454.0,423.0,427.0,380,488.230896 SURF_ID='surf1' /
&OBST XB=450.0,454.0,424.0,428.0,380,489.140747 SURF_ID='surf1' /
&OBST XB=450.0,454.0,425.0,429.0,380,489.140747 SURF_ID='surf1' /
&OBST XB=450.0,454.0,426.0,430.0,380,489.95938099999995 SURF_ID='surf1' /
&OBST XB=450.0,454.0,427.0,431.0,380,489.95938099999995 SURF_ID='surf1' /
&OBST XB=450.0,454.0,428.0,432.0,380,490.778595 SURF_ID='surf1' /
&OBST XB=450.0,454.0,429.0,433.0,380,490.778595 SURF_ID='surf1' /
&OBST XB=450.0,454.0,430.0,434.0,380,491.70553600000005 SURF_ID='surf1' /
&OBST XB=450.0,454.0,431.0,435.0,380,491.70553600000005 SURF_ID='surf1' /
&OBST XB=450.0,454.0,432.0,436.0,380,492.654022 SURF_ID='surf1' /
&OBST XB=450.0,454.0,433.0,437.0,380,492.654022 SURF_ID='surf1' /
&OBST XB=450.0,454.0,434.0,438.0,380,493.72699000000006 SURF_ID='surf1' /
&OBST XB=450.0,454.0,435.0,439.0,380,493.72699000000006 SURF_ID='surf1' /
&OBST XB=450.0,454.0,436.0,440.0,380,494.91864000000004 SURF_ID='surf1' /
&OBST XB=450.0,454.0,437.0,441.0,380,494.91864000000004 SURF_ID='surf1' /
&OBST XB=450.0,454.0,438.0,442.0,380,496.110291 SURF_ID='surf1' /
&OBST XB=450.0,454.0,439.0,443.0,380,496.110291 SURF_ID='surf1' /
&OBST XB=450.0,454.0,440.0,444.0,380,497.183258 SURF_ID='surf1' /
&OBST XB=450.0,454.0,441.0,445.0,380,497.183258 SURF_ID='surf1' /
&OBST XB=450.0,454.0,442.0,446.0,380,498.20559699999995 SURF_ID='surf1' /
&OBST XB=450.0,454.0,443.0,447.0,380,498.20559699999995 SURF_ID='surf1' /
&OBST XB=450.0,454.0,444.0,448.0,380,499.28866600000003 SURF_ID='surf1' /
&OBST XB=450.0,454.0,445.0,449.0,380,499.28866600000003 SURF_ID='surf1' /
&OBST XB=450.0,454.0,446.0,450.0,380,500.256042 SURF_ID='surf1' /
&OBST XB=450.0,454.0,447.0,451.0,380,500.256042 SURF_ID='surf1' /
&OBST XB=450.0,454.0,448.0,452.0,380,501.222778 SURF_ID='surf1' /
&OBST XB=450.0,454.0,449.0,453.0,380,501.222778 SURF_ID='surf1' /
&OBST XB=450.0,454.0,450.0,454.0,380,502.29715 SURF_ID='surf1' /
&OBST XB=450.0,454.0,451.0,455.0,380,502.29715 SURF_ID='surf1' /
&OBST XB=450.0,454.0,452.0,456.0,380,503.33493 SURF_ID='surf1' /
&OBST XB=450.0,454.0,453.0,457.0,380,503.33493 SURF_ID='surf1' /
&OBST XB=450.0,454.0,454.0,458.0,380,504.228271 SURF_ID='surf1' /
&OBST XB=450.0,454.0,455.0,459.0,380,504.228271 SURF_ID='surf1' /
&OBST XB=450.0,454.0,456.0,460.0,380,505.11279299999995 SURF_ID='surf1' /
&OBST XB=450.0,454.0,457.0,461.0,380,505.11279299999995 SURF_ID='surf1' /
&OBST XB=450.0,454.0,458.0,462.0,380,506.09518399999996 SURF_ID='surf1' /
&OBST XB=450.0,454.0,459.0,463.0,380,506.09518399999996 SURF_ID='surf1' /
&OBST XB=450.0,454.0,460.0,464.0,380,506.97909500000003 SURF_ID='surf1' /
&OBST XB=450.0,454.0,461.0,465.0,380,506.97909500000003 SURF_ID='surf1' /
&OBST XB=450.0,454.0,462.0,466.0,380,507.85321 SURF_ID='surf1' /
&OBST XB=450.0,454.0,463.0,467.0,380,507.85321 SURF_ID='surf1' /
&OBST XB=450.0,454.0,464.0,468.0,380,508.80700700000006 SURF_ID='surf1' /
&OBST XB=450.0,454.0,465.0,469.0,380,508.80700700000006 SURF_ID='surf1' /
&OBST XB=450.0,454.0,466.0,470.0,380,509.75237999999996 SURF_ID='surf1' /
&OBST XB=450.0,454.0,467.0,471.0,380,509.75237999999996 SURF_ID='surf1' /
&OBST XB=450.0,454.0,468.0,472.0,380,510.60311900000005 SURF_ID='surf1' /
&OBST XB=450.0,454.0,469.0,473.0,380,510.60311900000005 SURF_ID='surf1' /
&OBST XB=450.0,454.0,470.0,474.0,380,511.453247 SURF_ID='surf1' /
&OBST XB=451.0,455.0,270.0,274.0,380,424.482971 SURF_ID='surf1' /
&OBST XB=451.0,455.0,271.0,275.0,380,424.482971 SURF_ID='surf1' /
&OBST XB=451.0,455.0,272.0,276.0,380,425.26330599999994 SURF_ID='surf1' /
&OBST XB=451.0,455.0,273.0,277.0,380,425.26330599999994 SURF_ID='surf1' /
&OBST XB=451.0,455.0,274.0,278.0,380,426.13049299999994 SURF_ID='surf1' /
&OBST XB=451.0,455.0,275.0,279.0,380,426.13049299999994 SURF_ID='surf1' /
&OBST XB=451.0,455.0,276.0,280.0,380,426.99282800000003 SURF_ID='surf1' /
&OBST XB=451.0,455.0,277.0,281.0,380,426.99282800000003 SURF_ID='surf1' /
&OBST XB=451.0,455.0,278.0,282.0,380,427.756866 SURF_ID='surf1' /
&OBST XB=451.0,455.0,279.0,283.0,380,427.756866 SURF_ID='surf1' /
&OBST XB=451.0,455.0,280.0,284.0,380,428.51086399999997 SURF_ID='surf1' /
&OBST XB=451.0,455.0,281.0,285.0,380,428.51086399999997 SURF_ID='surf1' /
&OBST XB=451.0,455.0,282.0,286.0,380,429.348755 SURF_ID='surf1' /
&OBST XB=451.0,455.0,283.0,287.0,380,429.348755 SURF_ID='surf1' /
&OBST XB=451.0,455.0,284.0,288.0,380,430.10321 SURF_ID='surf1' /
&OBST XB=451.0,455.0,285.0,289.0,380,430.10321 SURF_ID='surf1' /
&OBST XB=451.0,455.0,286.0,290.0,380,430.861908 SURF_ID='surf1' /
&OBST XB=451.0,455.0,287.0,291.0,380,430.861908 SURF_ID='surf1' /
&OBST XB=451.0,455.0,288.0,292.0,380,431.75708 SURF_ID='surf1' /
&OBST XB=451.0,455.0,289.0,293.0,380,431.75708 SURF_ID='surf1' /
&OBST XB=451.0,455.0,290.0,294.0,380,432.699951 SURF_ID='surf1' /
&OBST XB=451.0,455.0,291.0,295.0,380,432.699951 SURF_ID='surf1' /
&OBST XB=451.0,455.0,292.0,296.0,380,433.54834000000005 SURF_ID='surf1' /
&OBST XB=451.0,455.0,293.0,297.0,380,433.54834000000005 SURF_ID='surf1' /
&OBST XB=451.0,455.0,294.0,298.0,380,434.39727800000003 SURF_ID='surf1' /
&OBST XB=451.0,455.0,295.0,299.0,380,434.39727800000003 SURF_ID='surf1' /
&OBST XB=451.0,455.0,296.0,300.0,380,435.342468 SURF_ID='surf1' /
&OBST XB=451.0,455.0,297.0,301.0,380,435.342468 SURF_ID='surf1' /
&OBST XB=451.0,455.0,298.0,302.0,380,436.247192 SURF_ID='surf1' /
&OBST XB=451.0,455.0,299.0,303.0,380,436.247192 SURF_ID='surf1' /
&OBST XB=451.0,455.0,300.0,304.0,380,437.217743 SURF_ID='surf1' /
&OBST XB=451.0,455.0,301.0,305.0,380,437.217743 SURF_ID='surf1' /
&OBST XB=451.0,455.0,302.0,306.0,380,438.295654 SURF_ID='surf1' /
&OBST XB=451.0,455.0,303.0,307.0,380,438.295654 SURF_ID='surf1' /
&OBST XB=451.0,455.0,304.0,308.0,380,439.373596 SURF_ID='surf1' /
&OBST XB=451.0,455.0,305.0,309.0,380,439.373596 SURF_ID='surf1' /
&OBST XB=451.0,455.0,306.0,310.0,380,440.34411600000004 SURF_ID='surf1' /
&OBST XB=451.0,455.0,307.0,311.0,380,440.34411600000004 SURF_ID='surf1' /
&OBST XB=451.0,455.0,308.0,312.0,380,441.321411 SURF_ID='surf1' /
&OBST XB=451.0,455.0,309.0,313.0,380,441.321411 SURF_ID='surf1' /
&OBST XB=451.0,455.0,310.0,314.0,380,442.41552699999994 SURF_ID='surf1' /
&OBST XB=451.0,455.0,311.0,315.0,380,442.41552699999994 SURF_ID='surf1' /
&OBST XB=451.0,455.0,312.0,316.0,380,443.51095599999996 SURF_ID='surf1' /
&OBST XB=451.0,455.0,313.0,317.0,380,443.51095599999996 SURF_ID='surf1' /
&OBST XB=451.0,455.0,314.0,318.0,380,444.49667400000004 SURF_ID='surf1' /
&OBST XB=451.0,455.0,315.0,319.0,380,444.49667400000004 SURF_ID='surf1' /
&OBST XB=451.0,455.0,316.0,320.0,380,445.48303200000004 SURF_ID='surf1' /
&OBST XB=451.0,455.0,317.0,321.0,380,445.48303200000004 SURF_ID='surf1' /
&OBST XB=451.0,455.0,318.0,322.0,380,446.49768099999994 SURF_ID='surf1' /
&OBST XB=451.0,455.0,319.0,323.0,380,446.49768099999994 SURF_ID='surf1' /
&OBST XB=451.0,455.0,320.0,324.0,380,447.311768 SURF_ID='surf1' /
&OBST XB=451.0,455.0,321.0,325.0,380,447.311768 SURF_ID='surf1' /
&OBST XB=451.0,455.0,322.0,326.0,380,448.093658 SURF_ID='surf1' /
&OBST XB=451.0,455.0,323.0,327.0,380,448.093658 SURF_ID='surf1' /
&OBST XB=451.0,455.0,324.0,328.0,380,448.962006 SURF_ID='surf1' /
&OBST XB=451.0,455.0,325.0,329.0,380,448.962006 SURF_ID='surf1' /
&OBST XB=451.0,455.0,326.0,330.0,380,449.830383 SURF_ID='surf1' /
&OBST XB=451.0,455.0,327.0,331.0,380,449.830383 SURF_ID='surf1' /
&OBST XB=451.0,455.0,328.0,332.0,380,450.563782 SURF_ID='surf1' /
&OBST XB=451.0,455.0,329.0,333.0,380,450.563782 SURF_ID='surf1' /
&OBST XB=451.0,455.0,330.0,334.0,380,451.19207800000004 SURF_ID='surf1' /
&OBST XB=451.0,455.0,331.0,335.0,380,451.19207800000004 SURF_ID='surf1' /
&OBST XB=451.0,455.0,332.0,336.0,380,451.85083 SURF_ID='surf1' /
&OBST XB=451.0,455.0,333.0,337.0,380,451.85083 SURF_ID='surf1' /
&OBST XB=451.0,455.0,334.0,338.0,380,452.443665 SURF_ID='surf1' /
&OBST XB=451.0,455.0,335.0,339.0,380,452.443665 SURF_ID='surf1' /
&OBST XB=451.0,455.0,336.0,340.0,380,453.03610199999997 SURF_ID='surf1' /
&OBST XB=451.0,455.0,337.0,341.0,380,453.03610199999997 SURF_ID='surf1' /
&OBST XB=451.0,455.0,338.0,342.0,380,453.71063200000003 SURF_ID='surf1' /
&OBST XB=451.0,455.0,339.0,343.0,380,453.71063200000003 SURF_ID='surf1' /
&OBST XB=451.0,455.0,340.0,344.0,380,454.42520099999996 SURF_ID='surf1' /
&OBST XB=451.0,455.0,341.0,345.0,380,454.42520099999996 SURF_ID='surf1' /
&OBST XB=451.0,455.0,342.0,346.0,380,455.08941699999997 SURF_ID='surf1' /
&OBST XB=451.0,455.0,343.0,347.0,380,455.08941699999997 SURF_ID='surf1' /
&OBST XB=451.0,455.0,344.0,348.0,380,455.753601 SURF_ID='surf1' /
&OBST XB=451.0,455.0,345.0,349.0,380,455.753601 SURF_ID='surf1' /
&OBST XB=451.0,455.0,346.0,350.0,380,456.491211 SURF_ID='surf1' /
&OBST XB=451.0,455.0,347.0,351.0,380,456.491211 SURF_ID='surf1' /
&OBST XB=451.0,455.0,348.0,352.0,380,457.152405 SURF_ID='surf1' /
&OBST XB=451.0,455.0,349.0,353.0,380,457.152405 SURF_ID='surf1' /
&OBST XB=451.0,455.0,350.0,354.0,380,457.797913 SURF_ID='surf1' /
&OBST XB=451.0,455.0,351.0,355.0,380,457.797913 SURF_ID='surf1' /
&OBST XB=451.0,455.0,352.0,356.0,380,458.503571 SURF_ID='surf1' /
&OBST XB=451.0,455.0,353.0,357.0,380,458.503571 SURF_ID='surf1' /
&OBST XB=451.0,455.0,354.0,358.0,380,459.209259 SURF_ID='surf1' /
&OBST XB=451.0,455.0,355.0,359.0,380,459.209259 SURF_ID='surf1' /
&OBST XB=451.0,455.0,356.0,360.0,380,459.84423799999996 SURF_ID='surf1' /
&OBST XB=451.0,455.0,357.0,361.0,380,459.84423799999996 SURF_ID='surf1' /
&OBST XB=451.0,455.0,358.0,362.0,380,460.482422 SURF_ID='surf1' /
&OBST XB=451.0,455.0,359.0,363.0,380,460.482422 SURF_ID='surf1' /
&OBST XB=451.0,455.0,360.0,364.0,380,461.227417 SURF_ID='surf1' /
&OBST XB=451.0,455.0,361.0,365.0,380,461.227417 SURF_ID='surf1' /
&OBST XB=451.0,455.0,362.0,366.0,380,461.927612 SURF_ID='surf1' /
&OBST XB=451.0,455.0,363.0,367.0,380,461.927612 SURF_ID='surf1' /
&OBST XB=451.0,455.0,364.0,368.0,380,462.627777 SURF_ID='surf1' /
&OBST XB=451.0,455.0,365.0,369.0,380,462.627777 SURF_ID='surf1' /
&OBST XB=451.0,455.0,366.0,370.0,380,463.40588399999996 SURF_ID='surf1' /
&OBST XB=451.0,455.0,367.0,371.0,380,463.40588399999996 SURF_ID='surf1' /
&OBST XB=451.0,455.0,368.0,372.0,380,464.18338 SURF_ID='surf1' /
&OBST XB=451.0,455.0,369.0,373.0,380,464.18338 SURF_ID='surf1' /
&OBST XB=451.0,455.0,370.0,374.0,380,464.880737 SURF_ID='surf1' /
&OBST XB=451.0,455.0,371.0,375.0,380,464.880737 SURF_ID='surf1' /
&OBST XB=451.0,455.0,372.0,376.0,380,465.575989 SURF_ID='surf1' /
&OBST XB=451.0,455.0,373.0,377.0,380,465.575989 SURF_ID='surf1' /
&OBST XB=451.0,455.0,374.0,378.0,380,466.348572 SURF_ID='surf1' /
&OBST XB=451.0,455.0,375.0,379.0,380,466.348572 SURF_ID='surf1' /
&OBST XB=451.0,455.0,376.0,380.0,380,467.04382300000003 SURF_ID='surf1' /
&OBST XB=451.0,455.0,377.0,381.0,380,467.04382300000003 SURF_ID='surf1' /
&OBST XB=451.0,455.0,378.0,382.0,380,467.739075 SURF_ID='surf1' /
&OBST XB=451.0,455.0,379.0,383.0,380,467.739075 SURF_ID='surf1' /
&OBST XB=451.0,455.0,380.0,384.0,380,468.52093499999995 SURF_ID='surf1' /
&OBST XB=451.0,455.0,381.0,385.0,380,468.52093499999995 SURF_ID='surf1' /
&OBST XB=451.0,455.0,382.0,386.0,380,469.31518600000004 SURF_ID='surf1' /
&OBST XB=451.0,455.0,383.0,387.0,380,469.31518600000004 SURF_ID='surf1' /
&OBST XB=451.0,455.0,384.0,388.0,380,470.03268399999996 SURF_ID='surf1' /
&OBST XB=451.0,455.0,385.0,389.0,380,470.03268399999996 SURF_ID='surf1' /
&OBST XB=451.0,455.0,386.0,390.0,380,470.750183 SURF_ID='surf1' /
&OBST XB=451.0,455.0,387.0,391.0,380,470.750183 SURF_ID='surf1' /
&OBST XB=451.0,455.0,388.0,392.0,380,471.54748499999994 SURF_ID='surf1' /
&OBST XB=451.0,455.0,389.0,393.0,380,471.54748499999994 SURF_ID='surf1' /
&OBST XB=451.0,455.0,390.0,394.0,380,472.331085 SURF_ID='surf1' /
&OBST XB=451.0,455.0,391.0,395.0,380,472.331085 SURF_ID='surf1' /
&OBST XB=451.0,455.0,392.0,396.0,380,473.23760999999996 SURF_ID='surf1' /
&OBST XB=451.0,455.0,393.0,397.0,380,473.23760999999996 SURF_ID='surf1' /
&OBST XB=451.0,455.0,394.0,398.0,380,474.281311 SURF_ID='surf1' /
&OBST XB=451.0,455.0,395.0,399.0,380,474.281311 SURF_ID='surf1' /
&OBST XB=451.0,455.0,396.0,400.0,380,475.32562300000006 SURF_ID='surf1' /
&OBST XB=451.0,455.0,397.0,401.0,380,475.32562300000006 SURF_ID='surf1' /
&OBST XB=451.0,455.0,398.0,402.0,380,476.26538099999993 SURF_ID='surf1' /
&OBST XB=451.0,455.0,399.0,403.0,380,476.26538099999993 SURF_ID='surf1' /
&OBST XB=451.0,455.0,400.0,404.0,380,477.231567 SURF_ID='surf1' /
&OBST XB=451.0,455.0,401.0,405.0,380,477.231567 SURF_ID='surf1' /
&OBST XB=451.0,455.0,402.0,406.0,380,478.35650599999997 SURF_ID='surf1' /
&OBST XB=451.0,455.0,403.0,407.0,380,478.35650599999997 SURF_ID='surf1' /
&OBST XB=451.0,455.0,404.0,408.0,380,479.394379 SURF_ID='surf1' /
&OBST XB=451.0,455.0,405.0,409.0,380,479.394379 SURF_ID='surf1' /
&OBST XB=451.0,455.0,406.0,410.0,380,480.432953 SURF_ID='surf1' /
&OBST XB=451.0,455.0,407.0,411.0,380,480.432953 SURF_ID='surf1' /
&OBST XB=451.0,455.0,408.0,412.0,380,481.587067 SURF_ID='surf1' /
&OBST XB=451.0,455.0,409.0,413.0,380,481.587067 SURF_ID='surf1' /
&OBST XB=451.0,455.0,410.0,414.0,380,482.705688 SURF_ID='surf1' /
&OBST XB=451.0,455.0,411.0,415.0,380,482.705688 SURF_ID='surf1' /
&OBST XB=451.0,455.0,412.0,416.0,380,483.64221200000003 SURF_ID='surf1' /
&OBST XB=451.0,455.0,413.0,417.0,380,483.64221200000003 SURF_ID='surf1' /
&OBST XB=451.0,455.0,414.0,418.0,380,484.530426 SURF_ID='surf1' /
&OBST XB=451.0,455.0,415.0,419.0,380,484.530426 SURF_ID='surf1' /
&OBST XB=451.0,455.0,416.0,420.0,380,485.51754800000003 SURF_ID='surf1' /
&OBST XB=451.0,455.0,417.0,421.0,380,485.51754800000003 SURF_ID='surf1' /
&OBST XB=451.0,455.0,418.0,422.0,380,486.406372 SURF_ID='surf1' /
&OBST XB=451.0,455.0,419.0,423.0,380,486.406372 SURF_ID='surf1' /
&OBST XB=451.0,455.0,420.0,424.0,380,487.28854400000006 SURF_ID='surf1' /
&OBST XB=451.0,455.0,421.0,425.0,380,487.28854400000006 SURF_ID='surf1' /
&OBST XB=451.0,455.0,422.0,426.0,380,488.230896 SURF_ID='surf1' /
&OBST XB=451.0,455.0,423.0,427.0,380,488.230896 SURF_ID='surf1' /
&OBST XB=451.0,455.0,424.0,428.0,380,489.140747 SURF_ID='surf1' /
&OBST XB=451.0,455.0,425.0,429.0,380,489.140747 SURF_ID='surf1' /
&OBST XB=451.0,455.0,426.0,430.0,380,489.95938099999995 SURF_ID='surf1' /
&OBST XB=451.0,455.0,427.0,431.0,380,489.95938099999995 SURF_ID='surf1' /
&OBST XB=451.0,455.0,428.0,432.0,380,490.778595 SURF_ID='surf1' /
&OBST XB=451.0,455.0,429.0,433.0,380,490.778595 SURF_ID='surf1' /
&OBST XB=451.0,455.0,430.0,434.0,380,491.70553600000005 SURF_ID='surf1' /
&OBST XB=451.0,455.0,431.0,435.0,380,491.70553600000005 SURF_ID='surf1' /
&OBST XB=451.0,455.0,432.0,436.0,380,492.654022 SURF_ID='surf1' /
&OBST XB=451.0,455.0,433.0,437.0,380,492.654022 SURF_ID='surf1' /
&OBST XB=451.0,455.0,434.0,438.0,380,493.72699000000006 SURF_ID='surf1' /
&OBST XB=451.0,455.0,435.0,439.0,380,493.72699000000006 SURF_ID='surf1' /
&OBST XB=451.0,455.0,436.0,440.0,380,494.91864000000004 SURF_ID='surf1' /
&OBST XB=451.0,455.0,437.0,441.0,380,494.91864000000004 SURF_ID='surf1' /
&OBST XB=451.0,455.0,438.0,442.0,380,496.110291 SURF_ID='surf1' /
&OBST XB=451.0,455.0,439.0,443.0,380,496.110291 SURF_ID='surf1' /
&OBST XB=451.0,455.0,440.0,444.0,380,497.183258 SURF_ID='surf1' /
&OBST XB=451.0,455.0,441.0,445.0,380,497.183258 SURF_ID='surf1' /
&OBST XB=451.0,455.0,442.0,446.0,380,498.20559699999995 SURF_ID='surf1' /
&OBST XB=451.0,455.0,443.0,447.0,380,498.20559699999995 SURF_ID='surf1' /
&OBST XB=451.0,455.0,444.0,448.0,380,499.28866600000003 SURF_ID='surf1' /
&OBST XB=451.0,455.0,445.0,449.0,380,499.28866600000003 SURF_ID='surf1' /
&OBST XB=451.0,455.0,446.0,450.0,380,500.256042 SURF_ID='surf1' /
&OBST XB=451.0,455.0,447.0,451.0,380,500.256042 SURF_ID='surf1' /
&OBST XB=451.0,455.0,448.0,452.0,380,501.222778 SURF_ID='surf1' /
&OBST XB=451.0,455.0,449.0,453.0,380,501.222778 SURF_ID='surf1' /
&OBST XB=451.0,455.0,450.0,454.0,380,502.29715 SURF_ID='surf1' /
&OBST XB=451.0,455.0,451.0,455.0,380,502.29715 SURF_ID='surf1' /
&OBST XB=451.0,455.0,452.0,456.0,380,503.33493 SURF_ID='surf1' /
&OBST XB=451.0,455.0,453.0,457.0,380,503.33493 SURF_ID='surf1' /
&OBST XB=451.0,455.0,454.0,458.0,380,504.228271 SURF_ID='surf1' /
&OBST XB=451.0,455.0,455.0,459.0,380,504.228271 SURF_ID='surf1' /
&OBST XB=451.0,455.0,456.0,460.0,380,505.11279299999995 SURF_ID='surf1' /
&OBST XB=451.0,455.0,457.0,461.0,380,505.11279299999995 SURF_ID='surf1' /
&OBST XB=451.0,455.0,458.0,462.0,380,506.09518399999996 SURF_ID='surf1' /