&HEAD CHID='Region1', TITLE='Simulation of Chimney Tops fire' /

&MESH IJK=50,50,30, XB=500,600.0,200,300.0,380,440.0, MULT_ID='mesh' / 
&MULT ID='mesh', DX=100.0, DY=100.0, DZ=60.0, I_LOWER=0, I_UPPER=1, J_LOWER=0, J_UPPER=1, K_UPPER=3 /  

&MISC TMPA=30., TERRAIN_CASE=.TRUE., TERRAIN_IMAGE='Region1.png', VERBOSE=.TRUE., RESTART=.FALSE., PROJECTION=.TRUE.  /
&TIME T_BEGIN = 0.0, T_END = 60.0 / 

&DUMP NFRAMES=120, DT_PART=100., CFL_FILE=.TRUE., DT_PL3D=60.0, UVW_TIMER(1)=60.0 /  
&WIND DIRECTION=135., SPEED=5., SPONGE_CELLS=0, STRATIFICATION=.FALSE. /

&SLCF XB=500,700,200,400,380,620, QUANTITY='HRRPUV', CELL_CENTERED=.TRUE. /  

&RADI KAPPA0=0 / 

&SURF ID='FIRE604256', HRRPUA=3500., COLOR='ORANGE', RAMP_Q='fire' /
&SURF ID='FIRE604258', HRRPUA=3500., COLOR='ORANGE', RAMP_Q='fire' /
&SURF ID='FIRE604260', HRRPUA=3500., COLOR='ORANGE', RAMP_Q='fire' /
&SURF ID='FIRE604262', HRRPUA=3500., COLOR='ORANGE', RAMP_Q='fire' /
&SURF ID='FIRE604264', HRRPUA=3500., COLOR='ORANGE', RAMP_Q='fire' /
&SURF ID='FIRE606256', HRRPUA=3500., COLOR='ORANGE', RAMP_Q='fire' /
&SURF ID='FIRE606258', HRRPUA=3500., COLOR='ORANGE', RAMP_Q='fire' /
&SURF ID='FIRE606260', HRRPUA=3500., COLOR='ORANGE', RAMP_Q='fire' /
&SURF ID='FIRE606262', HRRPUA=3500., COLOR='ORANGE', RAMP_Q='fire' /
&SURF ID='FIRE606264', HRRPUA=3500., COLOR='ORANGE', RAMP_Q='fire' /
&SURF ID='FIRE608256', HRRPUA=3500., COLOR='ORANGE', RAMP_Q='fire' /
&SURF ID='FIRE608258', HRRPUA=3500., COLOR='ORANGE', RAMP_Q='fire' /
&SURF ID='FIRE608260', HRRPUA=3500., COLOR='ORANGE', RAMP_Q='fire' /
&SURF ID='FIRE608262', HRRPUA=3500., COLOR='ORANGE', RAMP_Q='fire' /
&SURF ID='FIRE608264', HRRPUA=3500., COLOR='ORANGE', RAMP_Q='fire' /
&SURF ID='FIRE610256', HRRPUA=3500., COLOR='ORANGE', RAMP_Q='fire' /
&SURF ID='FIRE610258', HRRPUA=3500., COLOR='ORANGE', RAMP_Q='fire' /
&SURF ID='FIRE610260', HRRPUA=3500., COLOR='ORANGE', RAMP_Q='fire' /
&SURF ID='FIRE610262', HRRPUA=3500., COLOR='ORANGE', RAMP_Q='fire' /
&SURF ID='FIRE610264', HRRPUA=3500., COLOR='ORANGE', RAMP_Q='fire' /
&SURF ID='FIRE612256', HRRPUA=3500., COLOR='ORANGE', RAMP_Q='fire' /
&SURF ID='FIRE612258', HRRPUA=3500., COLOR='ORANGE', RAMP_Q='fire' /
&SURF ID='FIRE612260', HRRPUA=3500., COLOR='ORANGE', RAMP_Q='fire' /
&SURF ID='FIRE612262', HRRPUA=3500., COLOR='ORANGE', RAMP_Q='fire' /
&SURF ID='FIRE612264', HRRPUA=3500., COLOR='ORANGE', RAMP_Q='fire' /

&RAMP ID='fire', T= 0., F=0. /
&RAMP ID='fire', T= 1., F=1. /
&RAMP ID='fire', T= 10., F=1. /
&RAMP ID='fire', T= 11., F=0. /

&VENT MB='XMIN', SURF_ID='OPEN' /  
&VENT MB='XMAX', SURF_ID='OPEN' /  
&VENT MB='YMIN', SURF_ID='OPEN' /  
&VENT MB='YMAX', SURF_ID='OPEN' /  
&VENT MB='ZMAX', SURF_ID='OPEN' /  

&REAC FUEL='CELLULOSE', C=6, H=10, O=5, SOOT_YIELD=0.005 / 

&SPEC ID='WATER VAPOR' / 

&SURF ID                        = 'grass' 
      MATL_ID(1,1:2)            = 'GENERIC VEGETATION','MOISTURE'
      MATL_MASS_FRACTION(1,1:2) = 0.937,0.063
      THICKNESS                 = 0.0002
      LENGTH                    = 0.21
      HEAT_TRANSFER_COEFFICIENT = 30.
      GEOMETRY                  = 'CYLINDRICAL' /

&SURF ID                        = 'needles' 
      MATL_ID(1,1:2)            = 'GENERIC VEGETATION','MOISTURE'
      MATL_MASS_FRACTION(1,1:2) = 0.95,0.05
      THICKNESS                 = 0.02
      LENGTH                    = 0.21
      HEAT_TRANSFER_COEFFICIENT = 30.
      GEOMETRY                  = 'CYLINDRICAL' /

&MATL ID = 'GENERIC VEGETATION' 
      DENSITY = 500.
      CONDUCTIVITY = 0.1
      SPECIFIC_HEAT= 1.5
      REFERENCE_TEMPERATURE = 200
      PYROLYSIS_RANGE = 30.
      NU_MATL = 0.2
      NU_SPEC = 0.8 
      SPEC_ID = 'CELLULOSE'
      HEAT_OF_COMBUSTION = 15600.
      HEAT_OF_REACTION = 418.
      MATL_ID  = 'CHAR' /

&MATL ID = 'MOISTURE' 
      DENSITY = 1000.
      CONDUCTIVITY = 0.1
      SPECIFIC_HEAT= 4.184
      REFERENCE_TEMPERATURE = 100.
      PYROLYSIS_RANGE = 10.
      NU_SPEC = 1.0 
      SPEC_ID = 'WATER VAPOR'
      HEAT_OF_REACTION = 2500./

&MATL ID = 'CHAR'
      DENSITY  = 100.
      CONDUCTIVITY = 0.1 
      SPECIFIC_HEAT = 1.0 / 

&MATL ID='DIRT'
      CONDUCTIVITY = 0.25
      SPECIFIC_HEAT = 2.
     DENSITY = 1300. /

&PART ID='foliage', DRAG_COEFFICIENT=1.0, SURF_ID='needles', SAMPLING_FACTOR=5,
      QUANTITIES='PARTICLE TEMPERATURE','PARTICLE MASS','PARTICLE DIAMETER', STATIC=.TRUE., COLOR='GREEN' / 

&PART ID='grass', DRAG_COEFFICIENT=1.0, SURF_ID='grass', SAMPLING_FACTOR=958,
      QUANTITIES='PARTICLE TEMPERATURE','PARTICLE MASS','PARTICLE DIAMETER', STATIC=.TRUE., COLOR='BROWN' /

&SURF ID = 'surf1', RGB = 122,117,48, MATL_ID='DIRT', THICKNESS=0.2, PART_ID='grass', PARTICLE_SURFACE_DENSITY=1.0 / 
&SURF ID = 'surf2', RGB = 0,100,0, MATL_ID='DIRT', THICKNESS=0.2 / 

&OBST XB=604.0,606.0,256.0,258.0,380,395.949097 SURF_IDS='FIRE604256','surf1' /
&OBST XB=604.0,606.0,258.0,260.0,380,396.087036 SURF_IDS='FIRE604258','surf1' /
&OBST XB=604.0,606.0,260.0,262.0,380,396.241058 SURF_IDS='FIRE604260','surf1' /
&OBST XB=604.0,606.0,262.0,264.0,380,396.395172 SURF_IDS='FIRE604262','surf1' /
&OBST XB=604.0,606.0,264.0,266.0,380,396.533875 SURF_IDS='FIRE604264','surf1' /
&OBST XB=606.0,608.0,256.0,258.0,380,395.833801 SURF_IDS='FIRE606256','surf1' /
&OBST XB=606.0,608.0,258.0,260.0,380,395.974457 SURF_IDS='FIRE606258','surf1' /
&OBST XB=606.0,608.0,260.0,262.0,380,396.13208 SURF_IDS='FIRE606260','surf1' /
&OBST XB=606.0,608.0,262.0,264.0,380,396.289795 SURF_IDS='FIRE606262','surf1' /
&OBST XB=606.0,608.0,264.0,266.0,380,396.431732 SURF_IDS='FIRE606264','surf1' /
&OBST XB=608.0,610.0,256.0,258.0,380,395.723541 SURF_IDS='FIRE608256','surf1' /
&OBST XB=608.0,610.0,258.0,260.0,380,395.86721800000004 SURF_IDS='FIRE608258','surf1' /
&OBST XB=608.0,610.0,260.0,262.0,380,396.028534 SURF_IDS='FIRE608260','surf1' /
&OBST XB=608.0,610.0,262.0,264.0,380,396.189972 SURF_IDS='FIRE608262','surf1' /
&OBST XB=608.0,610.0,264.0,266.0,380,396.335266 SURF_IDS='FIRE608264','surf1' /
&OBST XB=610.0,612.0,256.0,258.0,380,395.619263 SURF_IDS='FIRE610256','surf1' /
&OBST XB=610.0,612.0,258.0,260.0,380,395.76635699999997 SURF_IDS='FIRE610258','surf1' /
&OBST XB=610.0,612.0,260.0,262.0,380,395.931519 SURF_IDS='FIRE610260','surf1' /
&OBST XB=610.0,612.0,262.0,264.0,380,396.096802 SURF_IDS='FIRE610262','surf1' /
&OBST XB=610.0,612.0,264.0,266.0,380,396.245575 SURF_IDS='FIRE610264','surf1' /
&OBST XB=612.0,614.0,256.0,258.0,380,395.516052 SURF_IDS='FIRE612256','surf1' /
&OBST XB=612.0,614.0,258.0,260.0,380,395.666565 SURF_IDS='FIRE612258','surf1' /
&OBST XB=612.0,614.0,260.0,262.0,380,395.835632 SURF_IDS='FIRE612260','surf1' /
&OBST XB=612.0,614.0,262.0,264.0,380,396.004791 SURF_IDS='FIRE612262','surf1' /
&OBST XB=612.0,614.0,264.0,266.0,380,396.15704300000004 SURF_IDS='FIRE612264','surf1' /
&OBST XB=500.0,502.0,200.0,202.0,380,403.10604900000004 SURF_ID='surf1' /
&OBST XB=500.0,502.0,202.0,204.0,380,403.479736 SURF_ID='surf1' /
&OBST XB=500.0,502.0,204.0,206.0,380,403.935272 SURF_ID='surf1' /
&OBST XB=500.0,502.0,206.0,208.0,380,404.518311 SURF_ID='surf1' /
&OBST XB=500.0,502.0,208.0,210.0,380,405.121216 SURF_ID='surf1' /
&OBST XB=500.0,502.0,210.0,212.0,380,405.724182 SURF_ID='surf1' /
&OBST XB=500.0,502.0,212.0,214.0,380,406.393799 SURF_ID='surf1' /
&OBST XB=500.0,502.0,214.0,216.0,380,406.974823 SURF_ID='surf1' /
&OBST XB=500.0,502.0,216.0,218.0,380,407.207733 SURF_ID='surf1' /
&OBST XB=500.0,502.0,218.0,220.0,380,407.180542 SURF_ID='surf1' /
&OBST XB=500.0,502.0,220.0,222.0,380,407.153442 SURF_ID='surf1' /
&OBST XB=500.0,502.0,222.0,224.0,380,407.129059 SURF_ID='surf1' /
&OBST XB=500.0,502.0,224.0,226.0,380,407.105438 SURF_ID='surf1' /
&OBST XB=500.0,502.0,226.0,228.0,380,407.191559 SURF_ID='surf1' /
&OBST XB=500.0,502.0,228.0,230.0,380,407.369507 SURF_ID='surf1' /
&OBST XB=500.0,502.0,230.0,232.0,380,407.54745499999996 SURF_ID='surf1' /
&OBST XB=500.0,502.0,232.0,234.0,380,407.74517799999995 SURF_ID='surf1' /
&OBST XB=500.0,502.0,234.0,236.0,380,407.94277999999997 SURF_ID='surf1' /
&OBST XB=500.0,502.0,236.0,238.0,380,408.146637 SURF_ID='surf1' /
&OBST XB=500.0,502.0,238.0,240.0,380,408.385223 SURF_ID='surf1' /
&OBST XB=500.0,502.0,240.0,242.0,380,408.65213 SURF_ID='surf1' /
&OBST XB=500.0,502.0,242.0,244.0,380,408.892334 SURF_ID='surf1' /
&OBST XB=500.0,502.0,244.0,246.0,380,409.132538 SURF_ID='surf1' /
&OBST XB=500.0,502.0,246.0,248.0,380,409.708282 SURF_ID='surf1' /
&OBST XB=500.0,502.0,248.0,250.0,380,410.726868 SURF_ID='surf1' /
&OBST XB=500.0,502.0,250.0,252.0,380,411.763977 SURF_ID='surf1' /
&OBST XB=500.0,502.0,252.0,254.0,380,412.801086 SURF_ID='surf1' /
&OBST XB=500.0,502.0,254.0,256.0,380,413.953552 SURF_ID='surf1' /
&OBST XB=500.0,502.0,256.0,258.0,380,415.003845 SURF_ID='surf1' /
&OBST XB=500.0,502.0,258.0,260.0,380,416.08313 SURF_ID='surf1' /
&OBST XB=500.0,502.0,260.0,262.0,380,417.294312 SURF_ID='surf1' /
&OBST XB=500.0,502.0,262.0,264.0,380,418.50622599999997 SURF_ID='surf1' /
&OBST XB=500.0,502.0,264.0,266.0,380,419.596771 SURF_ID='surf1' /
&OBST XB=500.0,502.0,266.0,268.0,380,420.66152999999997 SURF_ID='surf1' /
&OBST XB=500.0,502.0,268.0,270.0,380,421.780792 SURF_ID='surf1' /
&OBST XB=500.0,502.0,270.0,272.0,380,422.75155599999994 SURF_ID='surf1' /
&OBST XB=500.0,502.0,272.0,274.0,380,423.72296100000005 SURF_ID='surf1' /
&OBST XB=500.0,502.0,274.0,276.0,380,424.80249000000003 SURF_ID='surf1' /
&OBST XB=500.0,502.0,276.0,278.0,380,425.89395099999996 SURF_ID='surf1' /
&OBST XB=500.0,502.0,278.0,280.0,380,426.90594500000003 SURF_ID='surf1' /
&OBST XB=500.0,502.0,280.0,282.0,380,427.94104000000004 SURF_ID='surf1' /
&OBST XB=500.0,502.0,282.0,284.0,380,429.09137000000004 SURF_ID='surf1' /
&OBST XB=500.0,502.0,284.0,286.0,380,430.12710599999997 SURF_ID='surf1' /
&OBST XB=500.0,502.0,286.0,288.0,380,431.168274 SURF_ID='surf1' /
&OBST XB=500.0,502.0,288.0,290.0,380,432.390625 SURF_ID='surf1' /
&OBST XB=500.0,502.0,290.0,292.0,380,433.67303499999997 SURF_ID='surf1' /
&OBST XB=500.0,502.0,292.0,294.0,380,434.82696500000003 SURF_ID='surf1' /
&OBST XB=500.0,502.0,294.0,296.0,380,435.981659 SURF_ID='surf1' /
&OBST XB=500.0,502.0,296.0,298.0,380,437.26446500000003 SURF_ID='surf1' /
&OBST XB=500.0,502.0,298.0,300.0,380,438.408112 SURF_ID='surf1' /
&OBST XB=500.0,502.0,300.0,302.0,380,439.53875700000003 SURF_ID='surf1' /
&OBST XB=500.0,502.0,302.0,304.0,380,440.79449500000004 SURF_ID='surf1' /
&OBST XB=500.0,502.0,304.0,306.0,380,442.05020099999996 SURF_ID='surf1' /
&OBST XB=500.0,502.0,306.0,308.0,380,443.18084699999997 SURF_ID='surf1' /
&OBST XB=500.0,502.0,308.0,310.0,380,444.33221399999996 SURF_ID='surf1' /
&OBST XB=500.0,502.0,310.0,312.0,380,445.63622999999995 SURF_ID='surf1' /
&OBST XB=500.0,502.0,312.0,314.0,380,446.94564800000006 SURF_ID='surf1' /
&OBST XB=500.0,502.0,314.0,316.0,380,448.12384000000003 SURF_ID='surf1' /
&OBST XB=500.0,502.0,316.0,318.0,380,449.30285599999996 SURF_ID='surf1' /
&OBST XB=500.0,502.0,318.0,320.0,380,450.57275400000003 SURF_ID='surf1' /
&OBST XB=500.0,502.0,320.0,322.0,380,451.66647300000005 SURF_ID='surf1' /
&OBST XB=500.0,502.0,322.0,324.0,380,452.744354 SURF_ID='surf1' /
&OBST XB=500.0,502.0,324.0,326.0,380,453.941437 SURF_ID='surf1' /
&OBST XB=500.0,502.0,326.0,328.0,380,455.138458 SURF_ID='surf1' /
&OBST XB=500.0,502.0,328.0,330.0,380,456.22528099999994 SURF_ID='surf1' /
&OBST XB=500.0,502.0,330.0,332.0,380,457.331421 SURF_ID='surf1' /
&OBST XB=500.0,502.0,332.0,334.0,380,458.56790199999995 SURF_ID='surf1' /
&OBST XB=500.0,502.0,334.0,336.0,380,459.680603 SURF_ID='surf1' /
&OBST XB=500.0,502.0,336.0,338.0,380,460.79254199999997 SURF_ID='surf1' /
&OBST XB=500.0,502.0,338.0,340.0,380,461.985352 SURF_ID='surf1' /
&OBST XB=500.0,502.0,340.0,342.0,380,463.0737 SURF_ID='surf1' /
&OBST XB=500.0,502.0,342.0,344.0,380,463.996887 SURF_ID='surf1' /
&OBST XB=500.0,502.0,344.0,346.0,380,464.92013499999996 SURF_ID='surf1' /
&OBST XB=500.0,502.0,346.0,348.0,380,465.945496 SURF_ID='surf1' /
&OBST XB=500.0,502.0,348.0,350.0,380,466.85385099999996 SURF_ID='surf1' /
&OBST XB=500.0,502.0,350.0,352.0,380,467.66922 SURF_ID='surf1' /
&OBST XB=500.0,502.0,352.0,354.0,380,468.508057 SURF_ID='surf1' /
&OBST XB=500.0,502.0,354.0,356.0,380,469.346863 SURF_ID='surf1' /
&OBST XB=500.0,502.0,356.0,358.0,380,470.101685 SURF_ID='surf1' /
&OBST XB=500.0,502.0,358.0,360.0,380,470.841858 SURF_ID='surf1' /
&OBST XB=500.0,502.0,360.0,362.0,380,471.52124000000003 SURF_ID='surf1' /
&OBST XB=500.0,502.0,362.0,364.0,380,472.015625 SURF_ID='surf1' /
&OBST XB=500.0,502.0,364.0,366.0,380,472.51000999999997 SURF_ID='surf1' /
&OBST XB=500.0,502.0,366.0,368.0,380,473.05944800000003 SURF_ID='surf1' /
&OBST XB=500.0,502.0,368.0,370.0,380,473.609192 SURF_ID='surf1' /
&OBST XB=500.0,502.0,370.0,372.0,380,474.11602800000003 SURF_ID='surf1' /
&OBST XB=500.0,502.0,372.0,374.0,380,474.637726 SURF_ID='surf1' /
&OBST XB=500.0,502.0,374.0,376.0,380,475.217468 SURF_ID='surf1' /
&OBST XB=500.0,502.0,376.0,378.0,380,475.73913600000003 SURF_ID='surf1' /
&OBST XB=500.0,502.0,378.0,380.0,380,476.260803 SURF_ID='surf1' /
&OBST XB=500.0,502.0,380.0,382.0,380,476.858582 SURF_ID='surf1' /
&OBST XB=500.0,502.0,382.0,384.0,380,477.479675 SURF_ID='surf1' /
&OBST XB=500.0,502.0,384.0,386.0,380,478.04333499999996 SURF_ID='surf1' /
&OBST XB=500.0,502.0,386.0,388.0,380,478.60696399999995 SURF_ID='surf1' /
&OBST XB=500.0,502.0,388.0,390.0,380,479.233307 SURF_ID='surf1' /
&OBST XB=500.0,502.0,390.0,392.0,380,479.814575 SURF_ID='surf1' /
&OBST XB=500.0,502.0,392.0,394.0,380,480.42822300000006 SURF_ID='surf1' /
&OBST XB=500.0,502.0,394.0,396.0,380,481.11987300000004 SURF_ID='surf1' /
&OBST XB=500.0,502.0,396.0,398.0,380,481.81192000000004 SURF_ID='surf1' /
&OBST XB=500.0,502.0,398.0,400.0,380,482.434692 SURF_ID='surf1' /
&OBST XB=500.0,502.0,400.0,402.0,380,483.054504 SURF_ID='surf1' /
&OBST XB=502.0,504.0,200.0,202.0,380,402.966492 SURF_ID='surf1' /
&OBST XB=502.0,504.0,202.0,204.0,380,403.3013 SURF_ID='surf1' /
&OBST XB=502.0,504.0,204.0,206.0,380,403.724518 SURF_ID='surf1' /
&OBST XB=502.0,504.0,206.0,208.0,380,404.309662 SURF_ID='surf1' /
&OBST XB=502.0,504.0,208.0,210.0,380,404.935699 SURF_ID='surf1' /
&OBST XB=502.0,504.0,210.0,212.0,380,405.561737 SURF_ID='surf1' /
&OBST XB=502.0,504.0,212.0,214.0,380,406.25708 SURF_ID='surf1' /
&OBST XB=502.0,504.0,214.0,216.0,380,406.860931 SURF_ID='surf1' /
&OBST XB=502.0,504.0,216.0,218.0,380,407.112122 SURF_ID='surf1' /
&OBST XB=502.0,504.0,218.0,220.0,380,407.10153199999996 SURF_ID='surf1' /
&OBST XB=502.0,504.0,220.0,222.0,380,407.090973 SURF_ID='surf1' /
&OBST XB=502.0,504.0,222.0,224.0,380,407.08145099999996 SURF_ID='surf1' /
&OBST XB=502.0,504.0,224.0,226.0,380,407.072357 SURF_ID='surf1' /
&OBST XB=502.0,504.0,226.0,228.0,380,407.120392 SURF_ID='surf1' /
&OBST XB=502.0,504.0,228.0,230.0,380,407.215607 SURF_ID='surf1' /
&OBST XB=502.0,504.0,230.0,232.0,380,407.31082200000003 SURF_ID='surf1' /
&OBST XB=502.0,504.0,232.0,234.0,380,407.41659500000003 SURF_ID='surf1' /
&OBST XB=502.0,504.0,234.0,236.0,380,407.522339 SURF_ID='surf1' /
&OBST XB=502.0,504.0,236.0,238.0,380,407.69928 SURF_ID='surf1' /
&OBST XB=502.0,504.0,238.0,240.0,380,407.98492400000003 SURF_ID='surf1' /
&OBST XB=502.0,504.0,240.0,242.0,380,408.30810499999995 SURF_ID='surf1' /
&OBST XB=502.0,504.0,242.0,244.0,380,408.598938 SURF_ID='surf1' /
&OBST XB=502.0,504.0,244.0,246.0,380,408.889771 SURF_ID='surf1' /
&OBST XB=502.0,504.0,246.0,248.0,380,409.498169 SURF_ID='surf1' /
&OBST XB=502.0,504.0,248.0,250.0,380,410.51550299999997 SURF_ID='surf1' /
&OBST XB=502.0,504.0,250.0,252.0,380,411.54235800000004 SURF_ID='surf1' /
&OBST XB=502.0,504.0,252.0,254.0,380,412.569183 SURF_ID='surf1' /
&OBST XB=502.0,504.0,254.0,256.0,380,413.710266 SURF_ID='surf1' /
&OBST XB=502.0,504.0,256.0,258.0,380,414.749115 SURF_ID='surf1' /
&OBST XB=502.0,504.0,258.0,260.0,380,415.81424 SURF_ID='surf1' /
&OBST XB=502.0,504.0,260.0,262.0,380,417.00863599999997 SURF_ID='surf1' /
&OBST XB=502.0,504.0,262.0,264.0,380,418.203735 SURF_ID='surf1' /
&OBST XB=502.0,504.0,264.0,266.0,380,419.279175 SURF_ID='surf1' /
&OBST XB=502.0,504.0,266.0,268.0,380,420.32842999999997 SURF_ID='surf1' /
&OBST XB=502.0,504.0,268.0,270.0,380,421.429535 SURF_ID='surf1' /
&OBST XB=502.0,504.0,270.0,272.0,380,422.383484 SURF_ID='surf1' /
&OBST XB=502.0,504.0,272.0,274.0,380,423.338013 SURF_ID='surf1' /
&OBST XB=502.0,504.0,274.0,276.0,380,424.39883399999997 SURF_ID='surf1' /
&OBST XB=502.0,504.0,276.0,278.0,380,425.47180199999997 SURF_ID='surf1' /
&OBST XB=502.0,504.0,278.0,280.0,380,426.467712 SURF_ID='surf1' /
&OBST XB=502.0,504.0,280.0,282.0,380,427.487183 SURF_ID='surf1' /
&OBST XB=502.0,504.0,282.0,284.0,380,428.620117 SURF_ID='surf1' /
&OBST XB=502.0,504.0,284.0,286.0,380,429.64028899999994 SURF_ID='surf1' /
&OBST XB=502.0,504.0,286.0,288.0,380,430.665955 SURF_ID='surf1' /
&OBST XB=502.0,504.0,288.0,290.0,380,431.87384000000003 SURF_ID='surf1' /
&OBST XB=502.0,504.0,290.0,292.0,380,433.144226 SURF_ID='surf1' /
&OBST XB=502.0,504.0,292.0,294.0,380,434.2873230000001 SURF_ID='surf1' /
&OBST XB=502.0,504.0,294.0,296.0,380,435.43118300000003 SURF_ID='surf1' /
&OBST XB=502.0,504.0,296.0,298.0,380,436.702087 SURF_ID='surf1' /
&OBST XB=502.0,504.0,298.0,300.0,380,437.83847000000003 SURF_ID='surf1' /
&OBST XB=502.0,504.0,300.0,302.0,380,438.966187 SURF_ID='surf1' /
&OBST XB=502.0,504.0,302.0,304.0,380,440.218567 SURF_ID='surf1' /
&OBST XB=502.0,504.0,304.0,306.0,380,441.470978 SURF_ID='surf1' /
&OBST XB=502.0,504.0,306.0,308.0,380,442.598633 SURF_ID='surf1' /
&OBST XB=502.0,504.0,308.0,310.0,380,443.74438499999997 SURF_ID='surf1' /
&OBST XB=502.0,504.0,310.0,312.0,380,445.039001 SURF_ID='surf1' /
&OBST XB=502.0,504.0,312.0,314.0,380,446.33816500000006 SURF_ID='surf1' /
&OBST XB=502.0,504.0,314.0,316.0,380,447.50720199999995 SURF_ID='surf1' /
&OBST XB=502.0,504.0,316.0,318.0,380,448.677063 SURF_ID='surf1' /
&OBST XB=502.0,504.0,318.0,320.0,380,449.949371 SURF_ID='surf1' /
&OBST XB=502.0,504.0,320.0,322.0,380,451.060669 SURF_ID='surf1' /
&OBST XB=502.0,504.0,322.0,324.0,380,452.16110199999997 SURF_ID='surf1' /
&OBST XB=502.0,504.0,324.0,326.0,380,453.38324000000006 SURF_ID='surf1' /
&OBST XB=502.0,504.0,326.0,328.0,380,454.605347 SURF_ID='surf1' /
&OBST XB=502.0,504.0,328.0,330.0,380,455.709747 SURF_ID='surf1' /
&OBST XB=502.0,504.0,330.0,332.0,380,456.82266200000004 SURF_ID='surf1' /
&OBST XB=502.0,504.0,332.0,334.0,380,458.062622 SURF_ID='surf1' /
&OBST XB=502.0,504.0,334.0,336.0,380,459.178467 SURF_ID='surf1' /
&OBST XB=502.0,504.0,336.0,338.0,380,460.29354900000004 SURF_ID='surf1' /
&OBST XB=502.0,504.0,338.0,340.0,380,461.486206 SURF_ID='surf1' /
&OBST XB=502.0,504.0,340.0,342.0,380,462.56536900000003 SURF_ID='surf1' /
&OBST XB=502.0,504.0,342.0,344.0,380,463.475586 SURF_ID='surf1' /
&OBST XB=502.0,504.0,344.0,346.0,380,464.385742 SURF_ID='surf1' /
&OBST XB=502.0,504.0,346.0,348.0,380,465.396637 SURF_ID='surf1' /
&OBST XB=502.0,504.0,348.0,350.0,380,466.289978 SURF_ID='surf1' /
&OBST XB=502.0,504.0,350.0,352.0,380,467.07772800000004 SURF_ID='surf1' /
&OBST XB=502.0,504.0,352.0,354.0,380,467.87677 SURF_ID='surf1' /
&OBST XB=502.0,504.0,354.0,356.0,380,468.675781 SURF_ID='surf1' /
&OBST XB=502.0,504.0,356.0,358.0,380,469.39480599999996 SURF_ID='surf1' /
&OBST XB=502.0,504.0,358.0,360.0,380,470.094482 SURF_ID='surf1' /
&OBST XB=502.0,504.0,360.0,362.0,380,470.681854 SURF_ID='surf1' /
&OBST XB=502.0,504.0,362.0,364.0,380,471.05499299999997 SURF_ID='surf1' /
&OBST XB=502.0,504.0,364.0,366.0,380,471.42804 SURF_ID='surf1' /
&OBST XB=502.0,504.0,366.0,368.0,380,471.842651 SURF_ID='surf1' /
&OBST XB=502.0,504.0,368.0,370.0,380,472.26086399999997 SURF_ID='surf1' /
&OBST XB=502.0,504.0,370.0,372.0,380,472.70849599999997 SURF_ID='surf1' /
&OBST XB=502.0,504.0,372.0,374.0,380,473.241211 SURF_ID='surf1' /
&OBST XB=502.0,504.0,374.0,376.0,380,473.83315999999996 SURF_ID='surf1' /
&OBST XB=502.0,504.0,376.0,378.0,380,474.365875 SURF_ID='surf1' /
&OBST XB=502.0,504.0,378.0,380.0,380,474.89856 SURF_ID='surf1' /
&OBST XB=502.0,504.0,380.0,382.0,380,475.533508 SURF_ID='surf1' /
&OBST XB=502.0,504.0,382.0,384.0,380,476.22326699999996 SURF_ID='surf1' /
&OBST XB=502.0,504.0,384.0,386.0,380,476.85473600000006 SURF_ID='surf1' /
&OBST XB=502.0,504.0,386.0,388.0,380,477.486206 SURF_ID='surf1' /
&OBST XB=502.0,504.0,388.0,390.0,380,478.18792699999995 SURF_ID='surf1' /
&OBST XB=502.0,504.0,390.0,392.0,380,478.841187 SURF_ID='surf1' /
&OBST XB=502.0,504.0,392.0,394.0,380,479.53457599999996 SURF_ID='surf1' /
&OBST XB=502.0,504.0,394.0,396.0,380,480.31713899999994 SURF_ID='surf1' /
&OBST XB=502.0,504.0,396.0,398.0,380,481.10018899999994 SURF_ID='surf1' /
&OBST XB=502.0,504.0,398.0,400.0,380,481.80481 SURF_ID='surf1' /
&OBST XB=502.0,504.0,400.0,402.0,380,482.49334699999997 SURF_ID='surf1' /
&OBST XB=504.0,506.0,200.0,202.0,380,402.827087 SURF_ID='surf1' /
&OBST XB=504.0,506.0,202.0,204.0,380,403.123016 SURF_ID='surf1' /
&OBST XB=504.0,506.0,204.0,206.0,380,403.513977 SURF_ID='surf1' /
&OBST XB=504.0,506.0,206.0,208.0,380,404.101227 SURF_ID='surf1' /
&OBST XB=504.0,506.0,208.0,210.0,380,404.75036600000004 SURF_ID='surf1' /
&OBST XB=504.0,506.0,210.0,212.0,380,405.39950600000003 SURF_ID='surf1' /
&OBST XB=504.0,506.0,212.0,214.0,380,406.12048300000004 SURF_ID='surf1' /
&OBST XB=504.0,506.0,214.0,216.0,380,406.747131 SURF_ID='surf1' /
&OBST XB=504.0,506.0,216.0,218.0,380,407.016571 SURF_ID='surf1' /
&OBST XB=504.0,506.0,218.0,220.0,380,407.022552 SURF_ID='surf1' /
&OBST XB=504.0,506.0,220.0,222.0,380,407.028534 SURF_ID='surf1' /
&OBST XB=504.0,506.0,222.0,224.0,380,407.033936 SURF_ID='surf1' /
&OBST XB=504.0,506.0,224.0,226.0,380,407.039337 SURF_ID='surf1' /
&OBST XB=504.0,506.0,226.0,228.0,380,407.04931600000003 SURF_ID='surf1' /
&OBST XB=504.0,506.0,228.0,230.0,380,407.06185899999997 SURF_ID='surf1' /
&OBST XB=504.0,506.0,230.0,232.0,380,407.074463 SURF_ID='surf1' /
&OBST XB=504.0,506.0,232.0,234.0,380,407.08837900000003 SURF_ID='surf1' /
&OBST XB=504.0,506.0,234.0,236.0,380,407.102295 SURF_ID='surf1' /
&OBST XB=504.0,506.0,236.0,238.0,380,407.25235 SURF_ID='surf1' /
&OBST XB=504.0,506.0,238.0,240.0,380,407.585052 SURF_ID='surf1' /
&OBST XB=504.0,506.0,240.0,242.0,380,407.964447 SURF_ID='surf1' /
&OBST XB=504.0,506.0,242.0,244.0,380,408.305847 SURF_ID='surf1' /
&OBST XB=504.0,506.0,244.0,246.0,380,408.647247 SURF_ID='surf1' /
&OBST XB=504.0,506.0,246.0,248.0,380,409.288208 SURF_ID='surf1' /
&OBST XB=504.0,506.0,248.0,250.0,380,410.304321 SURF_ID='surf1' /
&OBST XB=504.0,506.0,250.0,252.0,380,411.320923 SURF_ID='surf1' /
&OBST XB=504.0,506.0,252.0,254.0,380,412.33752400000003 SURF_ID='surf1' /
&OBST XB=504.0,506.0,254.0,256.0,380,413.46722400000004 SURF_ID='surf1' /
&OBST XB=504.0,506.0,256.0,258.0,380,414.49462900000003 SURF_ID='surf1' /
&OBST XB=504.0,506.0,258.0,260.0,380,415.54562400000003 SURF_ID='surf1' /
&OBST XB=504.0,506.0,260.0,262.0,380,416.723206 SURF_ID='surf1' /
&OBST XB=504.0,506.0,262.0,264.0,380,417.90155 SURF_ID='surf1' /
&OBST XB=504.0,506.0,264.0,266.0,380,418.96185299999996 SURF_ID='surf1' /
&OBST XB=504.0,506.0,266.0,268.0,380,419.99560499999995 SURF_ID='surf1' /
&OBST XB=504.0,506.0,268.0,270.0,380,421.07864400000005 SURF_ID='surf1' /
&OBST XB=504.0,506.0,270.0,272.0,380,422.015747 SURF_ID='surf1' /
&OBST XB=504.0,506.0,272.0,274.0,380,422.95349100000004 SURF_ID='surf1' /
&OBST XB=504.0,506.0,274.0,276.0,380,423.995575 SURF_ID='surf1' /
&OBST XB=504.0,506.0,276.0,278.0,380,425.050049 SURF_ID='surf1' /
&OBST XB=504.0,506.0,278.0,280.0,380,426.02987699999994 SURF_ID='surf1' /
&OBST XB=504.0,506.0,280.0,282.0,380,427.03375199999994 SURF_ID='surf1' /
&OBST XB=504.0,506.0,282.0,284.0,380,428.149384 SURF_ID='surf1' /
&OBST XB=504.0,506.0,284.0,286.0,380,429.1539 SURF_ID='surf1' /
&OBST XB=504.0,506.0,286.0,288.0,380,430.164185 SURF_ID='surf1' /
&OBST XB=504.0,506.0,288.0,290.0,380,431.357605 SURF_ID='surf1' /
&OBST XB=504.0,506.0,290.0,292.0,380,432.61590599999994 SURF_ID='surf1' /
&OBST XB=504.0,506.0,292.0,294.0,380,433.748199 SURF_ID='surf1' /
&OBST XB=504.0,506.0,294.0,296.0,380,434.88122599999997 SURF_ID='surf1' /
&OBST XB=504.0,506.0,296.0,298.0,380,436.140167 SURF_ID='surf1' /
&OBST XB=504.0,506.0,298.0,300.0,380,437.269409 SURF_ID='surf1' /
&OBST XB=504.0,506.0,300.0,302.0,380,438.39413499999995 SURF_ID='surf1' /
&OBST XB=504.0,506.0,302.0,304.0,380,439.64321900000004 SURF_ID='surf1' /
&OBST XB=504.0,506.0,304.0,306.0,380,440.892303 SURF_ID='surf1' /
&OBST XB=504.0,506.0,306.0,308.0,380,442.017029 SURF_ID='surf1' /
&OBST XB=504.0,506.0,308.0,310.0,380,443.157135 SURF_ID='surf1' /
&OBST XB=504.0,506.0,310.0,312.0,380,444.44235199999997 SURF_ID='surf1' /
&OBST XB=504.0,506.0,312.0,314.0,380,445.731354 SURF_ID='surf1' /
&OBST XB=504.0,506.0,314.0,316.0,380,446.89120499999996 SURF_ID='surf1' /
&OBST XB=504.0,506.0,316.0,318.0,380,448.051849 SURF_ID='surf1' /
&OBST XB=504.0,506.0,318.0,320.0,380,449.32659900000004 SURF_ID='surf1' /
&OBST XB=504.0,506.0,320.0,322.0,380,450.45550499999996 SURF_ID='surf1' /
&OBST XB=504.0,506.0,322.0,324.0,380,451.57842999999997 SURF_ID='surf1' /
&OBST XB=504.0,506.0,324.0,326.0,380,452.82562300000006 SURF_ID='surf1' /
&OBST XB=504.0,506.0,326.0,328.0,380,454.07275400000003 SURF_ID='surf1' /
&OBST XB=504.0,506.0,328.0,330.0,380,455.19470199999995 SURF_ID='surf1' /
&OBST XB=504.0,506.0,330.0,332.0,380,456.31442300000003 SURF_ID='surf1' /
&OBST XB=504.0,506.0,332.0,334.0,380,457.55786100000006 SURF_ID='surf1' /
&OBST XB=504.0,506.0,334.0,336.0,380,458.676849 SURF_ID='surf1' /
&OBST XB=504.0,506.0,336.0,338.0,380,459.795074 SURF_ID='surf1' /
&OBST XB=504.0,506.0,338.0,340.0,380,460.987579 SURF_ID='surf1' /
&OBST XB=504.0,506.0,340.0,342.0,380,462.057556 SURF_ID='surf1' /
&OBST XB=504.0,506.0,342.0,344.0,380,462.95471200000003 SURF_ID='surf1' /
&OBST XB=504.0,506.0,344.0,346.0,380,463.85189800000006 SURF_ID='surf1' /
&OBST XB=504.0,506.0,346.0,348.0,380,464.848297 SURF_ID='surf1' /
&OBST XB=504.0,506.0,348.0,350.0,380,465.726685 SURF_ID='surf1' /
&OBST XB=504.0,506.0,350.0,352.0,380,466.48681600000003 SURF_ID='surf1' /
&OBST XB=504.0,506.0,352.0,354.0,380,467.246094 SURF_ID='surf1' /
&OBST XB=504.0,506.0,354.0,356.0,380,468.00537099999997 SURF_ID='surf1' /
&OBST XB=504.0,506.0,356.0,358.0,380,468.688599 SURF_ID='surf1' /
&OBST XB=504.0,506.0,358.0,360.0,380,469.34787 SURF_ID='surf1' /
&OBST XB=504.0,506.0,360.0,362.0,380,469.84338399999996 SURF_ID='surf1' /
&OBST XB=504.0,506.0,362.0,364.0,380,470.09527599999996 SURF_ID='surf1' /
&OBST XB=504.0,506.0,364.0,366.0,380,470.34716799999995 SURF_ID='surf1' /
&OBST XB=504.0,506.0,366.0,368.0,380,470.627045 SURF_ID='surf1' /
&OBST XB=504.0,506.0,368.0,370.0,380,470.913879 SURF_ID='surf1' /
&OBST XB=504.0,506.0,370.0,372.0,380,471.30236799999994 SURF_ID='surf1' /
&OBST XB=504.0,506.0,372.0,374.0,380,471.8461 SURF_ID='surf1' /
&OBST XB=504.0,506.0,374.0,376.0,380,472.45025599999997 SURF_ID='surf1' /
&OBST XB=504.0,506.0,376.0,378.0,380,472.993958 SURF_ID='surf1' /
&OBST XB=504.0,506.0,378.0,380.0,380,473.53765899999996 SURF_ID='surf1' /
&OBST XB=504.0,506.0,380.0,382.0,380,474.20965599999994 SURF_ID='surf1' /
&OBST XB=504.0,506.0,382.0,384.0,380,474.96810899999997 SURF_ID='surf1' /
&OBST XB=504.0,506.0,384.0,386.0,380,475.66735800000004 SURF_ID='surf1' /
&OBST XB=504.0,506.0,386.0,388.0,380,476.36657699999995 SURF_ID='surf1' /
&OBST XB=504.0,506.0,388.0,390.0,380,477.143616 SURF_ID='surf1' /
&OBST XB=504.0,506.0,390.0,392.0,380,477.86877400000003 SURF_ID='surf1' /
&OBST XB=504.0,506.0,392.0,394.0,380,478.641846 SURF_ID='surf1' /
&OBST XB=504.0,506.0,394.0,396.0,380,479.51525899999996 SURF_ID='surf1' /
&OBST XB=504.0,506.0,396.0,398.0,380,480.38915999999995 SURF_ID='surf1' /
&OBST XB=504.0,506.0,398.0,400.0,380,481.175568 SURF_ID='surf1' /
&OBST XB=504.0,506.0,400.0,402.0,380,481.93273899999997 SURF_ID='surf1' /
&OBST XB=506.0,508.0,200.0,202.0,380,402.68548599999997 SURF_ID='surf1' /
&OBST XB=506.0,508.0,202.0,204.0,380,402.943115 SURF_ID='surf1' /
&OBST XB=506.0,508.0,204.0,206.0,380,403.302002 SURF_ID='surf1' /
&OBST XB=506.0,508.0,206.0,208.0,380,403.89056400000004 SURF_ID='surf1' /
&OBST XB=506.0,508.0,208.0,210.0,380,404.561371 SURF_ID='surf1' /
&OBST XB=506.0,508.0,210.0,212.0,380,405.232178 SURF_ID='surf1' /
&OBST XB=506.0,508.0,212.0,214.0,380,405.977203 SURF_ID='surf1' /
&OBST XB=506.0,508.0,214.0,216.0,380,406.625275 SURF_ID='surf1' /
&OBST XB=506.0,508.0,216.0,218.0,380,406.911987 SURF_ID='surf1' /
&OBST XB=506.0,508.0,218.0,220.0,380,406.933899 SURF_ID='surf1' /
&OBST XB=506.0,508.0,220.0,222.0,380,406.95575 SURF_ID='surf1' /
&OBST XB=506.0,508.0,222.0,224.0,380,406.975403 SURF_ID='surf1' /
&OBST XB=506.0,508.0,224.0,226.0,380,406.99475099999995 SURF_ID='surf1' /
&OBST XB=506.0,508.0,226.0,228.0,380,406.96731600000004 SURF_ID='surf1' /
&OBST XB=506.0,508.0,228.0,230.0,380,406.89898700000003 SURF_ID='surf1' /
&OBST XB=506.0,508.0,230.0,232.0,380,406.830658 SURF_ID='surf1' /
&OBST XB=506.0,508.0,232.0,234.0,380,406.754639 SURF_ID='surf1' /
&OBST XB=506.0,508.0,234.0,236.0,380,406.67877200000004 SURF_ID='surf1' /
&OBST XB=506.0,508.0,236.0,238.0,380,406.803406 SURF_ID='surf1' /
&OBST XB=506.0,508.0,238.0,240.0,380,407.184387 SURF_ID='surf1' /
&OBST XB=506.0,508.0,240.0,242.0,380,407.621338 SURF_ID='surf1' /
&OBST XB=506.0,508.0,242.0,244.0,380,408.014496 SURF_ID='surf1' /
&OBST XB=506.0,508.0,244.0,246.0,380,408.407654 SURF_ID='surf1' /
&OBST XB=506.0,508.0,246.0,248.0,380,409.081848 SURF_ID='surf1' /
&OBST XB=506.0,508.0,248.0,250.0,380,410.096344 SURF_ID='surf1' /
&OBST XB=506.0,508.0,250.0,252.0,380,411.10199 SURF_ID='surf1' /
&OBST XB=506.0,508.0,252.0,254.0,380,412.107666 SURF_ID='surf1' /
&OBST XB=506.0,508.0,254.0,256.0,380,413.22522000000004 SURF_ID='surf1' /
&OBST XB=506.0,508.0,256.0,258.0,380,414.24060099999997 SURF_ID='surf1' /
&OBST XB=506.0,508.0,258.0,260.0,380,415.277008 SURF_ID='surf1' /
&OBST XB=506.0,508.0,260.0,262.0,380,416.4375 SURF_ID='surf1' /
&OBST XB=506.0,508.0,262.0,264.0,380,417.598602 SURF_ID='surf1' /