&HEAD CHID='Region1', TITLE='Simulation of Chimney Tops fire' /

&MESH IJK=25,25,24, XB=400,500.0,0,100.0,280,376.0, MULT_ID='mesh' / 
&MULT ID='mesh', DX=100.0, DY=100.0, DZ=96.0, I_LOWER=0, I_UPPER=1, J_LOWER=0, J_UPPER=1, K_UPPER=1 /  

&MISC TMPA=30., TERRAIN_CASE=.TRUE., TERRAIN_IMAGE='Region1.png', VERBOSE=.TRUE., RESTART=.FALSE., PROJECTION=.TRUE.  /
&TIME T_BEGIN = 0.0, T_END = 60.0 / 

&DUMP NFRAMES=120, DT_PART=100., CFL_FILE=.TRUE., DT_PL3D=60. /  
&WIND DIRECTION=135., SPEED=5., SPONGE_CELLS=0, STRATIFICATION=.FALSE. /

&SURF ID='FIRE895496', HRRPUA=1500., COLOR='ORANGE', RAMP_Q='fire' /
&SURF ID='FIRE895500', HRRPUA=1500., COLOR='ORANGE', RAMP_Q='fire' /
&SURF ID='FIRE895504', HRRPUA=1500., COLOR='ORANGE', RAMP_Q='fire' /
&SURF ID='FIRE899496', HRRPUA=1500., COLOR='ORANGE', RAMP_Q='fire' /
&SURF ID='FIRE899500', HRRPUA=1500., COLOR='ORANGE', RAMP_Q='fire' /
&SURF ID='FIRE899504', HRRPUA=1500., COLOR='ORANGE', RAMP_Q='fire' /
&SURF ID='FIRE903496', HRRPUA=1500., COLOR='ORANGE', RAMP_Q='fire' /
&SURF ID='FIRE903500', HRRPUA=1500., COLOR='ORANGE', RAMP_Q='fire' /
&SURF ID='FIRE903504', HRRPUA=1500., COLOR='ORANGE', RAMP_Q='fire' /

&RAMP ID='fire', T= 0., F=0. /
&RAMP ID='fire', T= 1., F=1. /
&RAMP ID='fire', T= 30., F=1. /
&RAMP ID='fire', T= 31., F=0. /

&SLCF PBZ=1250., AGL_SLICE=1., QUANTITY='VELOCITY', VECTOR=.TRUE. /

&VENT MB='XMIN', SURF_ID='OPEN' /  
&VENT MB='XMAX', SURF_ID='OPEN' /  
&VENT MB='YMIN', SURF_ID='OPEN' /  
&VENT MB='YMAX', SURF_ID='OPEN' /  
&VENT MB='ZMAX', SURF_ID='OPEN' /  

&REAC FUEL='CELLULOSE', C=6, H=10, O=5, SOOT_YIELD=0.005 / 

&SPEC ID='WATER VAPOR' / 

&SURF ID                        = 'grass' 
      MATL_ID(1,1:2)            = 'GENERIC VEGETATION','MOISTURE'
      MATL_MASS_FRACTION(1,1:2) = 0.937,0.063
      THICKNESS                 = 0.0002
      LENGTH                    = 0.21
      HEAT_TRANSFER_COEFFICIENT = 30.
      GEOMETRY                  = 'CYLINDRICAL' /

&SURF ID                        = 'needles' 
      MATL_ID(1,1:2)            = 'GENERIC VEGETATION','MOISTURE'
      MATL_MASS_FRACTION(1,1:2) = 0.95,0.05
      THICKNESS                 = 0.02
      LENGTH                    = 0.21
      HEAT_TRANSFER_COEFFICIENT = 30.
      GEOMETRY                  = 'CYLINDRICAL' /

&MATL ID = 'GENERIC VEGETATION' 
      DENSITY = 500.
      CONDUCTIVITY = 0.1
      SPECIFIC_HEAT= 1.5
      REFERENCE_TEMPERATURE = 200
      PYROLYSIS_RANGE = 30.
      NU_MATL = 0.2
      NU_SPEC = 0.8 
      SPEC_ID = 'CELLULOSE'
      HEAT_OF_COMBUSTION = 15600.
      HEAT_OF_REACTION = 418.
      MATL_ID  = 'CHAR' /

&MATL ID = 'MOISTURE' 
      DENSITY = 1000.
      CONDUCTIVITY = 0.1
      SPECIFIC_HEAT= 4.184
      REFERENCE_TEMPERATURE = 100.
      PYROLYSIS_RANGE = 10.
      NU_SPEC = 1.0 
      SPEC_ID = 'WATER VAPOR'
      HEAT_OF_REACTION = 2500./

&MATL ID = 'CHAR'
      DENSITY  = 100.
      CONDUCTIVITY = 0.1 
      SPECIFIC_HEAT = 1.0 / 

&MATL ID='DIRT'
      CONDUCTIVITY = 0.25
      SPECIFIC_HEAT = 2.
     DENSITY = 1300. /

&PART ID='foliage', DRAG_COEFFICIENT=1.0, SURF_ID='needles', SAMPLING_FACTOR=5,
      QUANTITIES='PARTICLE TEMPERATURE','PARTICLE MASS','PARTICLE DIAMETER', STATIC=.TRUE., COLOR='GREEN' / 

&PART ID='grass', DRAG_COEFFICIENT=1.0, SURF_ID='grass', SAMPLING_FACTOR=958,
      QUANTITIES='PARTICLE TEMPERATURE','PARTICLE MASS','PARTICLE DIAMETER', STATIC=.TRUE., COLOR='BROWN' /

&SURF ID = 'surf1', RGB = 122,117,48, MATL_ID='DIRT', THICKNESS=0.2, PART_ID='grass', PARTICLE_SURFACE_DENSITY=1.0 / 
&SURF ID = 'surf2', RGB = 0,100,0, MATL_ID='DIRT', THICKNESS=0.2 / 

&OBST XB=496.0,500.0,104.0,108.0,280,364 SURF_IDS='FIRE895496','surf1' /
&OBST XB=500.0,504.0,104.0,108.0,280,360 SURF_IDS='FIRE895500','surf1' /
&OBST XB=504.0,508.0,104.0,108.0,280,356 SURF_IDS='FIRE895504','surf1' /
&OBST XB=496.0,500.0,100.0,104.0,280,364 SURF_IDS='FIRE899496','surf1' /
&OBST XB=500.0,504.0,100.0,104.0,280,360 SURF_IDS='FIRE899500','surf1' /
&OBST XB=504.0,508.0,100.0,104.0,280,360 SURF_IDS='FIRE899504','surf1' /
&OBST XB=496.0,500.0,96.0,100.0,280,364 SURF_IDS='FIRE903496','surf1' /
&OBST XB=500.0,504.0,96.0,100.0,280,360 SURF_IDS='FIRE903500','surf1' /
&OBST XB=504.0,508.0,96.0,100.0,280,360 SURF_IDS='FIRE903504','surf1' /
&OBST XB=400.0,404.0,200.0,204.0,280,468 SURF_ID='surf1' /
&OBST XB=404.0,408.0,200.0,204.0,280,468 SURF_ID='surf1' /
&OBST XB=408.0,412.0,200.0,204.0,280,464 SURF_ID='surf1' /
&OBST XB=412.0,416.0,200.0,204.0,280,460 SURF_ID='surf1' /
&OBST XB=416.0,420.0,200.0,204.0,280,460 SURF_ID='surf1' /
&OBST XB=420.0,424.0,200.0,204.0,280,456 SURF_ID='surf1' /
&OBST XB=424.0,428.0,200.0,204.0,280,452 SURF_ID='surf1' /
&OBST XB=428.0,432.0,200.0,204.0,280,448 SURF_ID='surf1' /
&OBST XB=432.0,436.0,200.0,204.0,280,448 SURF_ID='surf1' /
&OBST XB=436.0,440.0,200.0,204.0,280,444 SURF_ID='surf1' /
&OBST XB=440.0,444.0,200.0,204.0,280,440 SURF_ID='surf1' /
&OBST XB=444.0,448.0,200.0,204.0,280,440 SURF_ID='surf1' /
&OBST XB=448.0,452.0,200.0,204.0,280,436 SURF_ID='surf1' /
&OBST XB=452.0,456.0,200.0,204.0,280,436 SURF_ID='surf1' /
&OBST XB=456.0,460.0,200.0,204.0,280,432 SURF_ID='surf1' /
&OBST XB=460.0,464.0,200.0,204.0,280,432 SURF_ID='surf1' /
&OBST XB=464.0,468.0,200.0,204.0,280,432 SURF_ID='surf1' /
&OBST XB=468.0,472.0,200.0,204.0,280,428 SURF_ID='surf1' /
&OBST XB=472.0,476.0,200.0,204.0,280,428 SURF_ID='surf1' /
&OBST XB=476.0,480.0,200.0,204.0,280,424 SURF_ID='surf1' /
&OBST XB=480.0,484.0,200.0,204.0,280,424 SURF_ID='surf1' /
&OBST XB=484.0,488.0,200.0,204.0,280,424 SURF_ID='surf1' /
&OBST XB=488.0,492.0,200.0,204.0,280,420 SURF_ID='surf1' /
&OBST XB=492.0,496.0,200.0,204.0,280,420 SURF_ID='surf1' /
&OBST XB=496.0,500.0,200.0,204.0,280,420 SURF_ID='surf1' /
&OBST XB=500.0,504.0,200.0,204.0,280,420 SURF_ID='surf1' /
&OBST XB=504.0,508.0,200.0,204.0,280,420 SURF_ID='surf1' /
&OBST XB=508.0,512.0,200.0,204.0,280,420 SURF_ID='surf1' /
&OBST XB=512.0,516.0,200.0,204.0,280,416 SURF_ID='surf1' /
&OBST XB=516.0,520.0,200.0,204.0,280,416 SURF_ID='surf1' /
&OBST XB=520.0,524.0,200.0,204.0,280,416 SURF_ID='surf1' /
&OBST XB=524.0,528.0,200.0,204.0,280,416 SURF_ID='surf1' /
&OBST XB=528.0,532.0,200.0,204.0,280,412 SURF_ID='surf1' /
&OBST XB=532.0,536.0,200.0,204.0,280,412 SURF_ID='surf1' /
&OBST XB=536.0,540.0,200.0,204.0,280,412 SURF_ID='surf1' /
&OBST XB=540.0,544.0,200.0,204.0,280,408 SURF_ID='surf1' /
&OBST XB=544.0,548.0,200.0,204.0,280,408 SURF_ID='surf1' /
&OBST XB=548.0,552.0,200.0,204.0,280,404 SURF_ID='surf1' /
&OBST XB=552.0,556.0,200.0,204.0,280,404 SURF_ID='surf1' /
&OBST XB=556.0,560.0,200.0,204.0,280,400 SURF_ID='surf1' /
&OBST XB=560.0,564.0,200.0,204.0,280,400 SURF_ID='surf1' /
&OBST XB=564.0,568.0,200.0,204.0,280,396 SURF_ID='surf1' /
&OBST XB=568.0,572.0,200.0,204.0,280,396 SURF_ID='surf1' /
&OBST XB=572.0,576.0,200.0,204.0,280,392 SURF_ID='surf1' /
&OBST XB=576.0,580.0,200.0,204.0,280,392 SURF_ID='surf1' /
&OBST XB=580.0,584.0,200.0,204.0,280,388 SURF_ID='surf1' /
&OBST XB=584.0,588.0,200.0,204.0,280,384 SURF_ID='surf1' /
&OBST XB=588.0,592.0,200.0,204.0,280,384 SURF_ID='surf1' /
&OBST XB=592.0,596.0,200.0,204.0,280,380 SURF_ID='surf1' /
&OBST XB=596.0,600.0,200.0,204.0,280,376 SURF_ID='surf1' /
&OBST XB=600.0,604.0,200.0,204.0,280,372 SURF_ID='surf1' /
&OBST XB=400.0,404.0,196.0,200.0,280,464 SURF_ID='surf1' /
&OBST XB=404.0,408.0,196.0,200.0,280,464 SURF_ID='surf1' /
&OBST XB=408.0,412.0,196.0,200.0,280,464 SURF_ID='surf1' /
&OBST XB=412.0,416.0,196.0,200.0,280,460 SURF_ID='surf1' /
&OBST XB=416.0,420.0,196.0,200.0,280,456 SURF_ID='surf1' /
&OBST XB=420.0,424.0,196.0,200.0,280,456 SURF_ID='surf1' /
&OBST XB=424.0,428.0,196.0,200.0,280,452 SURF_ID='surf1' /
&OBST XB=428.0,432.0,196.0,200.0,280,448 SURF_ID='surf1' /
&OBST XB=432.0,436.0,196.0,200.0,280,444 SURF_ID='surf1' /
&OBST XB=436.0,440.0,196.0,200.0,280,444 SURF_ID='surf1' /
&OBST XB=440.0,444.0,196.0,200.0,280,440 SURF_ID='surf1' /
&OBST XB=444.0,448.0,196.0,200.0,280,436 SURF_ID='surf1' /
&OBST XB=448.0,452.0,196.0,200.0,280,436 SURF_ID='surf1' /
&OBST XB=452.0,456.0,196.0,200.0,280,432 SURF_ID='surf1' /
&OBST XB=456.0,460.0,196.0,200.0,280,432 SURF_ID='surf1' /
&OBST XB=460.0,464.0,196.0,200.0,280,432 SURF_ID='surf1' /
&OBST XB=464.0,468.0,196.0,200.0,280,428 SURF_ID='surf1' /
&OBST XB=468.0,472.0,196.0,200.0,280,424 SURF_ID='surf1' /
&OBST XB=472.0,476.0,196.0,200.0,280,424 SURF_ID='surf1' /
&OBST XB=476.0,480.0,196.0,200.0,280,424 SURF_ID='surf1' /
&OBST XB=480.0,484.0,196.0,200.0,280,420 SURF_ID='surf1' /
&OBST XB=484.0,488.0,196.0,200.0,280,420 SURF_ID='surf1' /
&OBST XB=488.0,492.0,196.0,200.0,280,416 SURF_ID='surf1' /
&OBST XB=492.0,496.0,196.0,200.0,280,416 SURF_ID='surf1' /
&OBST XB=496.0,500.0,196.0,200.0,280,416 SURF_ID='surf1' /
&OBST XB=500.0,504.0,196.0,200.0,280,416 SURF_ID='surf1' /
&OBST XB=504.0,508.0,196.0,200.0,280,416 SURF_ID='surf1' /
&OBST XB=508.0,512.0,196.0,200.0,280,416 SURF_ID='surf1' /
&OBST XB=512.0,516.0,196.0,200.0,280,416 SURF_ID='surf1' /
&OBST XB=516.0,520.0,196.0,200.0,280,416 SURF_ID='surf1' /
&OBST XB=520.0,524.0,196.0,200.0,280,416 SURF_ID='surf1' /
&OBST XB=524.0,528.0,196.0,200.0,280,412 SURF_ID='surf1' /
&OBST XB=528.0,532.0,196.0,200.0,280,412 SURF_ID='surf1' /
&OBST XB=532.0,536.0,196.0,200.0,280,412 SURF_ID='surf1' /
&OBST XB=536.0,540.0,196.0,200.0,280,412 SURF_ID='surf1' /
&OBST XB=540.0,544.0,196.0,200.0,280,412 SURF_ID='surf1' /
&OBST XB=544.0,548.0,196.0,200.0,280,408 SURF_ID='surf1' /
&OBST XB=548.0,552.0,196.0,200.0,280,408 SURF_ID='surf1' /
&OBST XB=552.0,556.0,196.0,200.0,280,404 SURF_ID='surf1' /
&OBST XB=556.0,560.0,196.0,200.0,280,404 SURF_ID='surf1' /
&OBST XB=560.0,564.0,196.0,200.0,280,400 SURF_ID='surf1' /
&OBST XB=564.0,568.0,196.0,200.0,280,400 SURF_ID='surf1' /
&OBST XB=568.0,572.0,196.0,200.0,280,396 SURF_ID='surf1' /
&OBST XB=572.0,576.0,196.0,200.0,280,392 SURF_ID='surf1' /
&OBST XB=576.0,580.0,196.0,200.0,280,392 SURF_ID='surf1' /
&OBST XB=580.0,584.0,196.0,200.0,280,388 SURF_ID='surf1' /
&OBST XB=584.0,588.0,196.0,200.0,280,384 SURF_ID='surf1' /
&OBST XB=588.0,592.0,196.0,200.0,280,380 SURF_ID='surf1' /
&OBST XB=592.0,596.0,196.0,200.0,280,376 SURF_ID='surf1' /
&OBST XB=596.0,600.0,196.0,200.0,280,372 SURF_ID='surf1' /
&OBST XB=600.0,604.0,196.0,200.0,280,372 SURF_ID='surf1' /
&OBST XB=400.0,404.0,192.0,196.0,280,464 SURF_ID='surf1' /
&OBST XB=404.0,408.0,192.0,196.0,280,460 SURF_ID='surf1' /
&OBST XB=408.0,412.0,192.0,196.0,280,460 SURF_ID='surf1' /
&OBST XB=412.0,416.0,192.0,196.0,280,456 SURF_ID='surf1' /
&OBST XB=416.0,420.0,192.0,196.0,280,456 SURF_ID='surf1' /
&OBST XB=420.0,424.0,192.0,196.0,280,452 SURF_ID='surf1' /
&OBST XB=424.0,428.0,192.0,196.0,280,452 SURF_ID='surf1' /
&OBST XB=428.0,432.0,192.0,196.0,280,448 SURF_ID='surf1' /
&OBST XB=432.0,436.0,192.0,196.0,280,444 SURF_ID='surf1' /
&OBST XB=436.0,440.0,192.0,196.0,280,440 SURF_ID='surf1' /
&OBST XB=440.0,444.0,192.0,196.0,280,440 SURF_ID='surf1' /
&OBST XB=444.0,448.0,192.0,196.0,280,436 SURF_ID='surf1' /
&OBST XB=448.0,452.0,192.0,196.0,280,432 SURF_ID='surf1' /
&OBST XB=452.0,456.0,192.0,196.0,280,432 SURF_ID='surf1' /
&OBST XB=456.0,460.0,192.0,196.0,280,428 SURF_ID='surf1' /
&OBST XB=460.0,464.0,192.0,196.0,280,428 SURF_ID='surf1' /
&OBST XB=464.0,468.0,192.0,196.0,280,424 SURF_ID='surf1' /
&OBST XB=468.0,472.0,192.0,196.0,280,424 SURF_ID='surf1' /
&OBST XB=472.0,476.0,192.0,196.0,280,420 SURF_ID='surf1' /
&OBST XB=476.0,480.0,192.0,196.0,280,420 SURF_ID='surf1' /
&OBST XB=480.0,484.0,192.0,196.0,280,420 SURF_ID='surf1' /
&OBST XB=484.0,488.0,192.0,196.0,280,416 SURF_ID='surf1' /
&OBST XB=488.0,492.0,192.0,196.0,280,416 SURF_ID='surf1' /
&OBST XB=492.0,496.0,192.0,196.0,280,412 SURF_ID='surf1' /
&OBST XB=496.0,500.0,192.0,196.0,280,412 SURF_ID='surf1' /
&OBST XB=500.0,504.0,192.0,196.0,280,412 SURF_ID='surf1' /
&OBST XB=504.0,508.0,192.0,196.0,280,412 SURF_ID='surf1' /
&OBST XB=508.0,512.0,192.0,196.0,280,412 SURF_ID='surf1' /
&OBST XB=512.0,516.0,192.0,196.0,280,412 SURF_ID='surf1' /
&OBST XB=516.0,520.0,192.0,196.0,280,412 SURF_ID='surf1' /
&OBST XB=520.0,524.0,192.0,196.0,280,412 SURF_ID='surf1' /
&OBST XB=524.0,528.0,192.0,196.0,280,412 SURF_ID='surf1' /
&OBST XB=528.0,532.0,192.0,196.0,280,408 SURF_ID='surf1' /
&OBST XB=532.0,536.0,192.0,196.0,280,408 SURF_ID='surf1' /
&OBST XB=536.0,540.0,192.0,196.0,280,408 SURF_ID='surf1' /
&OBST XB=540.0,544.0,192.0,196.0,280,408 SURF_ID='surf1' /
&OBST XB=544.0,548.0,192.0,196.0,280,408 SURF_ID='surf1' /
&OBST XB=548.0,552.0,192.0,196.0,280,408 SURF_ID='surf1' /
&OBST XB=552.0,556.0,192.0,196.0,280,408 SURF_ID='surf1' /
&OBST XB=556.0,560.0,192.0,196.0,280,404 SURF_ID='surf1' /
&OBST XB=560.0,564.0,192.0,196.0,280,400 SURF_ID='surf1' /
&OBST XB=564.0,568.0,192.0,196.0,280,400 SURF_ID='surf1' /
&OBST XB=568.0,572.0,192.0,196.0,280,396 SURF_ID='surf1' /
&OBST XB=572.0,576.0,192.0,196.0,280,392 SURF_ID='surf1' /
&OBST XB=576.0,580.0,192.0,196.0,280,388 SURF_ID='surf1' /
&OBST XB=580.0,584.0,192.0,196.0,280,388 SURF_ID='surf1' /
&OBST XB=584.0,588.0,192.0,196.0,280,384 SURF_ID='surf1' /
&OBST XB=588.0,592.0,192.0,196.0,280,380 SURF_ID='surf1' /
&OBST XB=592.0,596.0,192.0,196.0,280,376 SURF_ID='surf1' /
&OBST XB=596.0,600.0,192.0,196.0,280,372 SURF_ID='surf1' /
&OBST XB=600.0,604.0,192.0,196.0,280,368 SURF_ID='surf1' /
&OBST XB=400.0,404.0,188.0,192.0,280,460 SURF_ID='surf1' /
&OBST XB=404.0,408.0,188.0,192.0,280,460 SURF_ID='surf1' /
&OBST XB=408.0,412.0,188.0,192.0,280,456 SURF_ID='surf1' /
&OBST XB=412.0,416.0,188.0,192.0,280,456 SURF_ID='surf1' /
&OBST XB=416.0,420.0,188.0,192.0,280,452 SURF_ID='surf1' /
&OBST XB=420.0,424.0,188.0,192.0,280,452 SURF_ID='surf1' /
&OBST XB=424.0,428.0,188.0,192.0,280,448 SURF_ID='surf1' /
&OBST XB=428.0,432.0,188.0,192.0,280,448 SURF_ID='surf1' /
&OBST XB=432.0,436.0,188.0,192.0,280,444 SURF_ID='surf1' /
&OBST XB=436.0,440.0,188.0,192.0,280,440 SURF_ID='surf1' /
&OBST XB=440.0,444.0,188.0,192.0,280,440 SURF_ID='surf1' /
&OBST XB=444.0,448.0,188.0,192.0,280,436 SURF_ID='surf1' /
&OBST XB=448.0,452.0,188.0,192.0,280,432 SURF_ID='surf1' /
&OBST XB=452.0,456.0,188.0,192.0,280,428 SURF_ID='surf1' /
&OBST XB=456.0,460.0,188.0,192.0,280,428 SURF_ID='surf1' /
&OBST XB=460.0,464.0,188.0,192.0,280,424 SURF_ID='surf1' /
&OBST XB=464.0,468.0,188.0,192.0,280,420 SURF_ID='surf1' /
&OBST XB=468.0,472.0,188.0,192.0,280,420 SURF_ID='surf1' /
&OBST XB=472.0,476.0,188.0,192.0,280,416 SURF_ID='surf1' /
&OBST XB=476.0,480.0,188.0,192.0,280,416 SURF_ID='surf1' /
&OBST XB=480.0,484.0,188.0,192.0,280,416 SURF_ID='surf1' /
&OBST XB=484.0,488.0,188.0,192.0,280,412 SURF_ID='surf1' /
&OBST XB=488.0,492.0,188.0,192.0,280,412 SURF_ID='surf1' /
&OBST XB=492.0,496.0,188.0,192.0,280,408 SURF_ID='surf1' /
&OBST XB=496.0,500.0,188.0,192.0,280,408 SURF_ID='surf1' /
&OBST XB=500.0,504.0,188.0,192.0,280,408 SURF_ID='surf1' /
&OBST XB=504.0,508.0,188.0,192.0,280,408 SURF_ID='surf1' /
&OBST XB=508.0,512.0,188.0,192.0,280,408 SURF_ID='surf1' /
&OBST XB=512.0,516.0,188.0,192.0,280,408 SURF_ID='surf1' /
&OBST XB=516.0,520.0,188.0,192.0,280,408 SURF_ID='surf1' /
&OBST XB=520.0,524.0,188.0,192.0,280,408 SURF_ID='surf1' /
&OBST XB=524.0,528.0,188.0,192.0,280,408 SURF_ID='surf1' /
&OBST XB=528.0,532.0,188.0,192.0,280,408 SURF_ID='surf1' /
&OBST XB=532.0,536.0,188.0,192.0,280,408 SURF_ID='surf1' /
&OBST XB=536.0,540.0,188.0,192.0,280,408 SURF_ID='surf1' /
&OBST XB=540.0,544.0,188.0,192.0,280,408 SURF_ID='surf1' /
&OBST XB=544.0,548.0,188.0,192.0,280,408 SURF_ID='surf1' /
&OBST XB=548.0,552.0,188.0,192.0,280,408 SURF_ID='surf1' /
&OBST XB=552.0,556.0,188.0,192.0,280,404 SURF_ID='surf1' /
&OBST XB=556.0,560.0,188.0,192.0,280,404 SURF_ID='surf1' /
&OBST XB=560.0,564.0,188.0,192.0,280,400 SURF_ID='surf1' /
&OBST XB=564.0,568.0,188.0,192.0,280,400 SURF_ID='surf1' /
&OBST XB=568.0,572.0,188.0,192.0,280,396 SURF_ID='surf1' /
&OBST XB=572.0,576.0,188.0,192.0,280,392 SURF_ID='surf1' /
&OBST XB=576.0,580.0,188.0,192.0,280,388 SURF_ID='surf1' /
&OBST XB=580.0,584.0,188.0,192.0,280,384 SURF_ID='surf1' /
&OBST XB=584.0,588.0,188.0,192.0,280,384 SURF_ID='surf1' /
&OBST XB=588.0,592.0,188.0,192.0,280,380 SURF_ID='surf1' /
&OBST XB=592.0,596.0,188.0,192.0,280,376 SURF_ID='surf1' /
&OBST XB=596.0,600.0,188.0,192.0,280,372 SURF_ID='surf1' /
&OBST XB=600.0,604.0,188.0,192.0,280,368 SURF_ID='surf1' /
&OBST XB=400.0,404.0,184.0,188.0,280,460 SURF_ID='surf1' /
&OBST XB=404.0,408.0,184.0,188.0,280,456 SURF_ID='surf1' /
&OBST XB=408.0,412.0,184.0,188.0,280,456 SURF_ID='surf1' /
&OBST XB=412.0,416.0,184.0,188.0,280,452 SURF_ID='surf1' /
&OBST XB=416.0,420.0,184.0,188.0,280,452 SURF_ID='surf1' /
&OBST XB=420.0,424.0,184.0,188.0,280,448 SURF_ID='surf1' /
&OBST XB=424.0,428.0,184.0,188.0,280,448 SURF_ID='surf1' /
&OBST XB=428.0,432.0,184.0,188.0,280,444 SURF_ID='surf1' /
&OBST XB=432.0,436.0,184.0,188.0,280,444 SURF_ID='surf1' /
&OBST XB=436.0,440.0,184.0,188.0,280,440 SURF_ID='surf1' /
&OBST XB=440.0,444.0,184.0,188.0,280,436 SURF_ID='surf1' /
&OBST XB=444.0,448.0,184.0,188.0,280,436 SURF_ID='surf1' /
&OBST XB=448.0,452.0,184.0,188.0,280,432 SURF_ID='surf1' /
&OBST XB=452.0,456.0,184.0,188.0,280,428 SURF_ID='surf1' /
&OBST XB=456.0,460.0,184.0,188.0,280,424 SURF_ID='surf1' /
&OBST XB=460.0,464.0,184.0,188.0,280,424 SURF_ID='surf1' /
&OBST XB=464.0,468.0,184.0,188.0,280,420 SURF_ID='surf1' /
&OBST XB=468.0,472.0,184.0,188.0,280,416 SURF_ID='surf1' /
&OBST XB=472.0,476.0,184.0,188.0,280,416 SURF_ID='surf1' /
&OBST XB=476.0,480.0,184.0,188.0,280,412 SURF_ID='surf1' /
&OBST XB=480.0,484.0,184.0,188.0,280,412 SURF_ID='surf1' /
&OBST XB=484.0,488.0,184.0,188.0,280,408 SURF_ID='surf1' /
&OBST XB=488.0,492.0,184.0,188.0,280,408 SURF_ID='surf1' /
&OBST XB=492.0,496.0,184.0,188.0,280,408 SURF_ID='surf1' /
&OBST XB=496.0,500.0,184.0,188.0,280,408 SURF_ID='surf1' /
&OBST XB=500.0,504.0,184.0,188.0,280,408 SURF_ID='surf1' /
&OBST XB=504.0,508.0,184.0,188.0,280,404 SURF_ID='surf1' /
&OBST XB=508.0,512.0,184.0,188.0,280,404 SURF_ID='surf1' /
&OBST XB=512.0,516.0,184.0,188.0,280,404 SURF_ID='surf1' /
&OBST XB=516.0,520.0,184.0,188.0,280,404 SURF_ID='surf1' /
&OBST XB=520.0,524.0,184.0,188.0,280,404 SURF_ID='surf1' /
&OBST XB=524.0,528.0,184.0,188.0,280,404 SURF_ID='surf1' /
&OBST XB=528.0,532.0,184.0,188.0,280,404 SURF_ID='surf1' /
&OBST XB=532.0,536.0,184.0,188.0,280,404 SURF_ID='surf1' /
&OBST XB=536.0,540.0,184.0,188.0,280,404 SURF_ID='surf1' /
&OBST XB=540.0,544.0,184.0,188.0,280,404 SURF_ID='surf1' /
&OBST XB=544.0,548.0,184.0,188.0,280,404 SURF_ID='surf1' /
&OBST XB=548.0,552.0,184.0,188.0,280,404 SURF_ID='surf1' /
&OBST XB=552.0,556.0,184.0,188.0,280,404 SURF_ID='surf1' /
&OBST XB=556.0,560.0,184.0,188.0,280,404 SURF_ID='surf1' /
&OBST XB=560.0,564.0,184.0,188.0,280,400 SURF_ID='surf1' /
&OBST XB=564.0,568.0,184.0,188.0,280,396 SURF_ID='surf1' /
&OBST XB=568.0,572.0,184.0,188.0,280,396 SURF_ID='surf1' /
&OBST XB=572.0,576.0,184.0,188.0,280,392 SURF_ID='surf1' /
&OBST XB=576.0,580.0,184.0,188.0,280,388 SURF_ID='surf1' /
&OBST XB=580.0,584.0,184.0,188.0,280,384 SURF_ID='surf1' /
&OBST XB=584.0,588.0,184.0,188.0,280,380 SURF_ID='surf1' /
&OBST XB=588.0,592.0,184.0,188.0,280,376 SURF_ID='surf1' /
&OBST XB=592.0,596.0,184.0,188.0,280,372 SURF_ID='surf1' /
&OBST XB=596.0,600.0,184.0,188.0,280,372 SURF_ID='surf1' /
&OBST XB=600.0,604.0,184.0,188.0,280,368 SURF_ID='surf1' /
&OBST XB=400.0,404.0,180.0,184.0,280,456 SURF_ID='surf1' /
&OBST XB=404.0,408.0,180.0,184.0,280,456 SURF_ID='surf1' /
&OBST XB=408.0,412.0,180.0,184.0,280,452 SURF_ID='surf1' /
&OBST XB=412.0,416.0,180.0,184.0,280,452 SURF_ID='surf1' /
&OBST XB=416.0,420.0,180.0,184.0,280,448 SURF_ID='surf1' /
&OBST XB=420.0,424.0,180.0,184.0,280,448 SURF_ID='surf1' /
&OBST XB=424.0,428.0,180.0,184.0,280,444 SURF_ID='surf1' /
&OBST XB=428.0,432.0,180.0,184.0,280,444 SURF_ID='surf1' /
&OBST XB=432.0,436.0,180.0,184.0,280,440 SURF_ID='surf1' /
&OBST XB=436.0,440.0,180.0,184.0,280,440 SURF_ID='surf1' /
&OBST XB=440.0,444.0,180.0,184.0,280,436 SURF_ID='surf1' /
&OBST XB=444.0,448.0,180.0,184.0,280,432 SURF_ID='surf1' /
&OBST XB=448.0,452.0,180.0,184.0,280,432 SURF_ID='surf1' /
&OBST XB=452.0,456.0,180.0,184.0,280,428 SURF_ID='surf1' /
&OBST XB=456.0,460.0,180.0,184.0,280,424 SURF_ID='surf1' /
&OBST XB=460.0,464.0,180.0,184.0,280,420 SURF_ID='surf1' /
&OBST XB=464.0,468.0,180.0,184.0,280,420 SURF_ID='surf1' /
&OBST XB=468.0,472.0,180.0,184.0,280,416 SURF_ID='surf1' /
&OBST XB=472.0,476.0,180.0,184.0,280,412 SURF_ID='surf1' /
&OBST XB=476.0,480.0,180.0,184.0,280,412 SURF_ID='surf1' /
&OBST XB=480.0,484.0,180.0,184.0,280,408 SURF_ID='surf1' /
&OBST XB=484.0,488.0,180.0,184.0,280,408 SURF_ID='surf1' /
&OBST XB=488.0,492.0,180.0,184.0,280,404 SURF_ID='surf1' /
&OBST XB=492.0,496.0,180.0,184.0,280,404 SURF_ID='surf1' /
&OBST XB=496.0,500.0,180.0,184.0,280,404 SURF_ID='surf1' /
&OBST XB=500.0,504.0,180.0,184.0,280,400 SURF_ID='surf1' /
&OBST XB=504.0,508.0,180.0,184.0,280,400 SURF_ID='surf1' /
&OBST XB=508.0,512.0,180.0,184.0,280,400 SURF_ID='surf1' /
&OBST XB=512.0,516.0,180.0,184.0,280,400 SURF_ID='surf1' /
&OBST XB=516.0,520.0,180.0,184.0,280,400 SURF_ID='surf1' /
&OBST XB=520.0,524.0,180.0,184.0,280,400 SURF_ID='surf1' /
&OBST XB=524.0,528.0,180.0,184.0,280,400 SURF_ID='surf1' /
&OBST XB=528.0,532.0,180.0,184.0,280,400 SURF_ID='surf1' /
&OBST XB=532.0,536.0,180.0,184.0,280,400 SURF_ID='surf1' /
&OBST XB=536.0,540.0,180.0,184.0,280,400 SURF_ID='surf1' /
&OBST XB=540.0,544.0,180.0,184.0,280,400 SURF_ID='surf1' /
&OBST XB=544.0,548.0,180.0,184.0,280,400 SURF_ID='surf1' /
&OBST XB=548.0,552.0,180.0,184.0,280,400 SURF_ID='surf1' /
&OBST XB=552.0,556.0,180.0,184.0,280,400 SURF_ID='surf1' /
&OBST XB=556.0,560.0,180.0,184.0,280,400 SURF_ID='surf1' /
&OBST XB=560.0,564.0,180.0,184.0,280,400 SURF_ID='surf1' /
&OBST XB=564.0,568.0,180.0,184.0,280,396 SURF_ID='surf1' /
&OBST XB=568.0,572.0,180.0,184.0,280,392 SURF_ID='surf1' /
&OBST XB=572.0,576.0,180.0,184.0,280,392 SURF_ID='surf1' /
&OBST XB=576.0,580.0,180.0,184.0,280,388 SURF_ID='surf1' /
&OBST XB=580.0,584.0,180.0,184.0,280,384 SURF_ID='surf1' /
&OBST XB=584.0,588.0,180.0,184.0,280,380 SURF_ID='surf1' /
&OBST XB=588.0,592.0,180.0,184.0,280,376 SURF_ID='surf1' /
&OBST XB=592.0,596.0,180.0,184.0,280,372 SURF_ID='surf1' /
&OBST XB=596.0,600.0,180.0,184.0,280,368 SURF_ID='surf1' /
&OBST XB=600.0,604.0,180.0,184.0,280,364 SURF_ID='surf1' /
&OBST XB=400.0,404.0,176.0,180.0,280,452 SURF_ID='surf1' /
&OBST XB=404.0,408.0,176.0,180.0,280,452 SURF_ID='surf1' /
&OBST XB=408.0,412.0,176.0,180.0,280,448 SURF_ID='surf1' /
&OBST XB=412.0,416.0,176.0,180.0,280,448 SURF_ID='surf1' /
&OBST XB=416.0,420.0,176.0,180.0,280,444 SURF_ID='surf1' /
&OBST XB=420.0,424.0,176.0,180.0,280,444 SURF_ID='surf1' /
&OBST XB=424.0,428.0,176.0,180.0,280,444 SURF_ID='surf1' /
&OBST XB=428.0,432.0,176.0,180.0,280,440 SURF_ID='surf1' /
&OBST XB=432.0,436.0,176.0,180.0,280,440 SURF_ID='surf1' /
&OBST XB=436.0,440.0,176.0,180.0,280,436 SURF_ID='surf1' /
&OBST XB=440.0,444.0,176.0,180.0,280,436 SURF_ID='surf1' /
&OBST XB=444.0,448.0,176.0,180.0,280,432 SURF_ID='surf1' /
&OBST XB=448.0,452.0,176.0,180.0,280,428 SURF_ID='surf1' /
&OBST XB=452.0,456.0,176.0,180.0,280,428 SURF_ID='surf1' /
&OBST XB=456.0,460.0,176.0,180.0,280,424 SURF_ID='surf1' /
&OBST XB=460.0,464.0,176.0,180.0,280,420 SURF_ID='surf1' /
&OBST XB=464.0,468.0,176.0,180.0,280,416 SURF_ID='surf1' /
&OBST XB=468.0,472.0,176.0,180.0,280,412 SURF_ID='surf1' /
&OBST XB=472.0,476.0,176.0,180.0,280,412 SURF_ID='surf1' /
&OBST XB=476.0,480.0,176.0,180.0,280,408 SURF_ID='surf1' /
&OBST XB=480.0,484.0,176.0,180.0,280,404 SURF_ID='surf1' /
&OBST XB=484.0,488.0,176.0,180.0,280,404 SURF_ID='surf1' /
&OBST XB=488.0,492.0,176.0,180.0,280,400 SURF_ID='surf1' /
&OBST XB=492.0,496.0,176.0,180.0,280,400 SURF_ID='surf1' /
&OBST XB=496.0,500.0,176.0,180.0,280,400 SURF_ID='surf1' /
&OBST XB=500.0,504.0,176.0,180.0,280,400 SURF_ID='surf1' /
&OBST XB=504.0,508.0,176.0,180.0,280,400 SURF_ID='surf1' /
&OBST XB=508.0,512.0,176.0,180.0,280,400 SURF_ID='surf1' /
&OBST XB=512.0,516.0,176.0,180.0,280,396 SURF_ID='surf1' /
&OBST XB=516.0,520.0,176.0,180.0,280,396 SURF_ID='surf1' /
&OBST XB=520.0,524.0,176.0,180.0,280,396 SURF_ID='surf1' /
&OBST XB=524.0,528.0,176.0,180.0,280,396 SURF_ID='surf1' /
&OBST XB=528.0,532.0,176.0,180.0,280,396 SURF_ID='surf1' /
&OBST XB=532.0,536.0,176.0,180.0,280,396 SURF_ID='surf1' /
&OBST XB=536.0,540.0,176.0,180.0,280,396 SURF_ID='surf1' /
&OBST XB=540.0,544.0,176.0,180.0,280,396 SURF_ID='surf1' /
&OBST XB=544.0,548.0,176.0,180.0,280,396 SURF_ID='surf1' /
&OBST XB=548.0,552.0,176.0,180.0,280,396 SURF_ID='surf1' /
&OBST XB=552.0,556.0,176.0,180.0,280,396 SURF_ID='surf1' /
&OBST XB=556.0,560.0,176.0,180.0,280,396 SURF_ID='surf1' /
&OBST XB=560.0,564.0,176.0,180.0,280,396 SURF_ID='surf1' /
&OBST XB=564.0,568.0,176.0,180.0,280,392 SURF_ID='surf1' /
&OBST XB=568.0,572.0,176.0,180.0,280,392 SURF_ID='surf1' /
&OBST XB=572.0,576.0,176.0,180.0,280,388 SURF_ID='surf1' /
&OBST XB=576.0,580.0,176.0,180.0,280,384 SURF_ID='surf1' /
&OBST XB=580.0,584.0,176.0,180.0,280,384 SURF_ID='surf1' /
&OBST XB=584.0,588.0,176.0,180.0,280,380 SURF_ID='surf1' /
&OBST XB=588.0,592.0,176.0,180.0,280,376 SURF_ID='surf1' /
&OBST XB=592.0,596.0,176.0,180.0,280,372 SURF_ID='surf1' /
&OBST XB=596.0,600.0,176.0,180.0,280,368 SURF_ID='surf1' /
&OBST XB=600.0,604.0,176.0,180.0,280,364 SURF_ID='surf1' /
&OBST XB=400.0,404.0,172.0,176.0,280,452 SURF_ID='surf1' /
&OBST XB=404.0,408.0,172.0,176.0,280,448 SURF_ID='surf1' /
&OBST XB=408.0,412.0,172.0,176.0,280,448 SURF_ID='surf1' /
&OBST XB=412.0,416.0,172.0,176.0,280,444 SURF_ID='surf1' /
&OBST XB=416.0,420.0,172.0,176.0,280,444 SURF_ID='surf1' /
&OBST XB=420.0,424.0,172.0,176.0,280,440 SURF_ID='surf1' /
&OBST XB=424.0,428.0,172.0,176.0,280,440 SURF_ID='surf1' /
&OBST XB=428.0,432.0,172.0,176.0,280,436 SURF_ID='surf1' /
&OBST XB=432.0,436.0,172.0,176.0,280,436 SURF_ID='surf1' /
&OBST XB=436.0,440.0,172.0,176.0,280,432 SURF_ID='surf1' /
&OBST XB=440.0,444.0,172.0,176.0,280,432 SURF_ID='surf1' /
&OBST XB=444.0,448.0,172.0,176.0,280,432 SURF_ID='surf1' /
&OBST XB=448.0,452.0,172.0,176.0,280,428 SURF_ID='surf1' /
&OBST XB=452.0,456.0,172.0,176.0,280,424 SURF_ID='surf1' /
&OBST XB=456.0,460.0,172.0,176.0,280,424 SURF_ID='surf1' /
&OBST XB=460.0,464.0,172.0,176.0,280,420 SURF_ID='surf1' /
&OBST XB=464.0,468.0,172.0,176.0,280,416 SURF_ID='surf1' /
&OBST XB=468.0,472.0,172.0,176.0,280,412 SURF_ID='surf1' /
&OBST XB=472.0,476.0,172.0,176.0,280,408 SURF_ID='surf1' /
&OBST XB=476.0,480.0,172.0,176.0,280,408 SURF_ID='surf1' /
&OBST XB=480.0,484.0,172.0,176.0,280,404 SURF_ID='surf1' /
&OBST XB=484.0,488.0,172.0,176.0,280,400 SURF_ID='surf1' /
&OBST XB=488.0,492.0,172.0,176.0,280,400 SURF_ID='surf1' /
&OBST XB=492.0,496.0,172.0,176.0,280,396 SURF_ID='surf1' /
&OBST XB=496.0,500.0,172.0,176.0,280,396 SURF_ID='surf1' /
&OBST XB=500.0,504.0,172.0,176.0,280,396 SURF_ID='surf1' /
&OBST XB=504.0,508.0,172.0,176.0,280,396 SURF_ID='surf1' /
&OBST XB=508.0,512.0,172.0,176.0,280,396 SURF_ID='surf1' /
&OBST XB=512.0,516.0,172.0,176.0,280,392 SURF_ID='surf1' /
&OBST XB=516.0,520.0,172.0,176.0,280,392 SURF_ID='surf1' /
&OBST XB=520.0,524.0,172.0,176.0,280,392 SURF_ID='surf1' /
&OBST XB=524.0,528.0,172.0,176.0,280,392 SURF_ID='surf1' /
&OBST XB=528.0,532.0,172.0,176.0,280,392 SURF_ID='surf1' /
&OBST XB=532.0,536.0,172.0,176.0,280,392 SURF_ID='surf1' /
&OBST XB=536.0,540.0,172.0,176.0,280,392 SURF_ID='surf1' /
&OBST XB=540.0,544.0,172.0,176.0,280,392 SURF_ID='surf1' /
&OBST XB=544.0,548.0,172.0,176.0,280,392 SURF_ID='surf1' /
&OBST XB=548.0,552.0,172.0,176.0,280,392 SURF_ID='surf1' /
&OBST XB=552.0,556.0,172.0,176.0,280,392 SURF_ID='surf1' /
&OBST XB=556.0,560.0,172.0,176.0,280,396 SURF_ID='surf1' /
&OBST XB=560.0,564.0,172.0,176.0,280,392 SURF_ID='surf1' /
&OBST XB=564.0,568.0,172.0,176.0,280,392 SURF_ID='surf1' /
&OBST XB=568.0,572.0,172.0,176.0,280,388 SURF_ID='surf1' /
&OBST XB=572.0,576.0,172.0,176.0,280,388 SURF_ID='surf1' /
&OBST XB=576.0,580.0,172.0,176.0,280,384 SURF_ID='surf1' /
&OBST XB=580.0,584.0,172.0,176.0,280,380 SURF_ID='surf1' /
&OBST XB=584.0,588.0,172.0,176.0,280,376 SURF_ID='surf1' /
&OBST XB=588.0,592.0,172.0,176.0,280,376 SURF_ID='surf1' /
&OBST XB=592.0,596.0,172.0,176.0,280,372 SURF_ID='surf1' /
&OBST XB=596.0,600.0,172.0,176.0,280,368 SURF_ID='surf1' /
&OBST XB=600.0,604.0,172.0,176.0,280,364 SURF_ID='surf1' /
&OBST XB=400.0,404.0,168.0,172.0,280,448 SURF_ID='surf1' /
&OBST XB=404.0,408.0,168.0,172.0,280,448 SURF_ID='surf1' /
&OBST XB=408.0,412.0,168.0,172.0,280,444 SURF_ID='surf1' /
&OBST XB=412.0,416.0,168.0,172.0,280,440 SURF_ID='surf1' /
&OBST XB=416.0,420.0,168.0,172.0,280,440 SURF_ID='surf1' /
&OBST XB=420.0,424.0,168.0,172.0,280,436 SURF_ID='surf1' /
&OBST XB=424.0,428.0,168.0,172.0,280,436 SURF_ID='surf1' /
&OBST XB=428.0,432.0,168.0,172.0,280,432 SURF_ID='surf1' /
&OBST XB=432.0,436.0,168.0,172.0,280,432 SURF_ID='surf1' /
&OBST XB=436.0,440.0,168.0,172.0,280,432 SURF_ID='surf1' /
&OBST XB=440.0,444.0,168.0,172.0,280,428 SURF_ID='surf1' /
&OBST XB=444.0,448.0,168.0,172.0,280,428 SURF_ID='surf1' /
&OBST XB=448.0,452.0,168.0,172.0,280,424 SURF_ID='surf1' /
&OBST XB=452.0,456.0,168.0,172.0,280,424 SURF_ID='surf1' /
&OBST XB=456.0,460.0,168.0,172.0,280,420 SURF_ID='surf1' /
&OBST XB=460.0,464.0,168.0,172.0,280,420 SURF_ID='surf1' /
&OBST XB=464.0,468.0,168.0,172.0,280,416 SURF_ID='surf1' /
&OBST XB=468.0,472.0,168.0,172.0,280,412 SURF_ID='surf1' /
&OBST XB=472.0,476.0,168.0,172.0,280,408 SURF_ID='surf1' /
&OBST XB=476.0,480.0,168.0,172.0,280,404 SURF_ID='surf1' /
&OBST XB=480.0,484.0,168.0,172.0,280,400 SURF_ID='surf1' /
&OBST XB=484.0,488.0,168.0,172.0,280,400 SURF_ID='surf1' /
&OBST XB=488.0,492.0,168.0,172.0,280,396 SURF_ID='surf1' /
&OBST XB=492.0,496.0,168.0,172.0,280,396 SURF_ID='surf1' /
&OBST XB=496.0,500.0,168.0,172.0,280,392 SURF_ID='surf1' /
&OBST XB=500.0,504.0,168.0,172.0,280,392 SURF_ID='surf1' /
&OBST XB=504.0,508.0,168.0,172.0,280,392 SURF_ID='surf1' /
&OBST XB=508.0,512.0,168.0,172.0,280,392 SURF_ID='surf1' /